  29
        -41.16330700
 C          2.1087756318       -0.1346654377        1.0822506193
 C          3.2283097507        0.6623060835        0.9059017065
 C          3.4906400320        1.2408516884       -0.3230333722
 C          2.6246046906        1.0207026274       -1.3815047928
 C          1.5062710970        0.2285320050       -1.2050657265
 C          1.2367628792       -0.3602943858        0.0262918134
 C         -0.0253903771       -1.2080118700        0.1362940552
 C         -1.2260167051       -0.2736149106        0.0791213111
 C         -2.3113122628       -0.5527994008       -0.7376779764
 C         -3.4057309944        0.2946910549       -0.7626474844
 C         -3.4273930867        1.4272724014        0.0316034625
 O         -0.0995414138       -2.0906490108       -0.9798745780
 C         -0.1074041998       -2.0232478962        1.4350539226
 C         -1.2518808760        0.8663767415        0.8739174869
 C         -2.3464584346        1.7104893567        0.8504792755
 H          1.9257235918       -0.5725378103        2.0505277603
 H          3.8983562192        0.8303182555        1.7359846120
 H          4.3642745442        1.8610018300       -0.4559930114
 H          2.8186464016        1.4692394105       -2.3442908863
 H          0.8250744795        0.0510379111       -2.0247767302
 H         -2.2880585105       -1.4354976799       -1.3574156275
 H         -4.2434894281        0.0665450388       -1.4046813978
 H         -4.2809356934        2.0881407041        0.0126525148
 H          0.6255380269       -2.7261175438       -0.9170343949
 H         -0.9792963068       -2.6716720570        1.3778218102
 H          0.7820164304       -2.6373304071        1.5602179820
 H         -0.2221073664       -1.3698641530        2.2944044802
 H         -0.4080873517        1.0979397311        1.5076685097
 H         -2.3550638988        2.5936907280        1.4716837880
  29
        -41.16211307
 C          2.3280784557       -0.6906527964       -0.6855923832
 C          3.4769606309        0.0815241892       -0.6786732925
 C          3.5354830891        1.2313974778        0.0887819700
 C          2.4411497818        1.6033908733        0.8529064608
 C          1.2926544820        0.8335307882        0.8442266596
 C          1.2252291563       -0.3177743342        0.0685241829
 C         -0.0314698475       -1.1814417439        0.0941996132
 C         -1.2587425596       -0.2821683395        0.0155505154
 C         -2.3323190677       -0.3688399352        0.8903732660
 C         -3.4312824100        0.4611684631        0.7373181456
 C         -3.4752987065        1.3851730636       -0.2911705138
 O         -0.0577063519       -2.1006721295       -0.9970574898
 C          0.0256252603       -2.0456273331        1.3586090329
 C         -1.3129461858        0.6511660997       -1.0172250070
 C         -2.4095200827        1.4783122302       -1.1707808939
 H          2.2815430077       -1.5953984402       -1.2739207040
 H          4.3274154453       -0.2184878164       -1.2726147692
 H          4.4308018996        1.8346407110        0.0950437246
 H          2.4826415629        2.4969939377        1.4575893045
 H          0.4391189528        1.1288674822        1.4373666149
 H         -2.3222541168       -1.0804334572        1.6997155692
 H         -4.2575030013        0.3821656277        1.4279564125
 H         -4.3331007441        2.0300511719       -0.4069888090
 H         -0.2537127718       -1.6205971196       -1.8125202313
 H          0.0115798297       -1.4229343897        2.2474481955
 H         -0.8085064903       -2.7417124729        1.3689523829
 H          0.9483626158       -2.6203771226        1.3402123303
 H         -0.4769555849        0.7418411294       -1.6978366283
 H         -2.4305046923        2.1975927726       -1.9756469653
  29
        -41.16163169
 C          1.4680299336        0.2820387973        1.0801154098
 C          2.6019421228        1.0582148404        1.2285603000
 C          3.4854785543        1.2110602285        0.1721768727
 C          3.2199659210        0.5911216389       -1.0352403718
 C          2.0843576195       -0.1874479451       -1.1832649470
 C          1.2036878018       -0.3582916389       -0.1256416765
 C         -0.0541818240       -1.2141966291       -0.2621237568
 C         -1.2418544477       -0.3040751154        0.0210212906
 C         -2.0539371054       -0.4246414448        1.1391589814
 C         -3.1056111810        0.4551700049        1.3379106357
 C         -3.3615179283        1.4601036800        0.4226978428
 O         -0.2334748573       -1.6809549991       -1.5960444678
 C          0.0502746273       -2.4143748729        0.6858406440
 C         -1.5039568915        0.7107045041       -0.8933094435
 C         -2.5573703482        1.5835395889       -0.6982475468
 H          0.7750495719        0.1830664585        1.9026271908
 H          2.7957284052        1.5489176407        2.1706612315
 H          4.3711619996        1.8171642956        0.2889396054
 H          3.8961364477        0.7132939644       -1.8683061893
 H          1.8723756971       -0.6512343349       -2.1350004918
 H         -1.8812112582       -1.2022923932        1.8656769402
 H         -3.7286821584        0.3504526588        2.2137668301
 H         -4.1828735941        2.1428240478        0.5803014176
 H          0.3549200327       -2.4337271766       -1.7432319008
 H         -0.8459458239       -3.0259144252        0.6087593537
 H          0.9149426342       -3.0145235846        0.4062097874
 H          0.1849966318       -2.0927906407        1.7132587447
 H         -0.8756652063        0.8015135583       -1.7664912070
 H         -2.7488726520        2.3632257114       -1.4203076886
  29
        -41.16099011
 C          1.8057061080       -0.5084623291       -1.1600825698
 C          2.9040671773        0.2495458899       -1.5244895928
 C          3.4217302753        1.1869734025       -0.6484808970
 C          2.8264235705        1.3640720567        0.5889543549
 C          1.7288251044        0.6049397073        0.9530172468
 C          1.2118348136       -0.3498169704        0.0856213766
 C         -0.0193659214       -1.1814071307        0.4479832820
 C         -1.2210528406       -0.2740118026        0.2109398277
 C         -1.8519880937       -0.2985221503       -1.0269962455
 C         -2.9232177771        0.5347287561       -1.2934183420
 C         -3.3753738879        1.4165769745       -0.3277314992
 O         -0.1545267213       -2.2930446148       -0.4308259687
 C          0.0521908483       -1.7133719499        1.8850794777
 C         -1.6777162103        0.6183895157        1.1727134929
 C         -2.7465552603        1.4552563108        0.9045781042
 H          1.3960329528       -1.2305930672       -1.8504013067
 H          3.3535577464        0.1076000787       -2.4960122213
 H          4.2791668065        1.7796543802       -0.9289452384
 H          3.2176551320        2.0988435204        1.2764925560
 H          1.2777571715        0.7694118899        1.9183203477
 H         -1.5023154814       -0.9882806727       -1.7788774786
 H         -3.4032018949        0.4951195238       -2.2599748807
 H         -4.2104269431        2.0692471871       -0.5334891423
 H          0.5206660358       -2.9462583660       -0.2037537072
 H          0.9382688226       -2.3362171878        1.9958278694
 H          0.1051318214       -0.9193925624        2.6196376409
 H         -0.8335092565       -2.3134872170        2.0824797391
 H         -1.2103876136        0.6728596728        2.1426966337
 H         -3.0902671477        2.1407396195        1.6649288811
  29
        -41.16056566
 C          1.2012475306        0.9840955894       -0.5414228761
 C          2.3663739567        1.7215626549       -0.6613735204
 C          3.5864833281        1.1562075968       -0.3352813660
 C          3.6324581585       -0.1563144287        0.1011458057
 C          2.4672813384       -0.8926238973        0.2226874384
 C          1.2353355355       -0.3269848048       -0.0830001952
 C         -0.0430638749       -1.1560331594        0.0092962901
 C         -1.2617898829       -0.2471624703        0.1117152115
 C         -2.1913158458       -0.1717314334       -0.9158670448
 C         -3.3047654590        0.6437133354       -0.8021252228
 C         -3.4999252113        1.3978166572        0.3408405854
 O         -0.0676945404       -1.9324068705       -1.1871085078
 C         -0.0310893745       -2.0942432933        1.2299352147
 C         -1.4569464297        0.5264726384        1.2515553794
 C         -2.5680602132        1.3410208143        1.3648879077
 H          0.2574488487        1.4354628127       -0.8084592827
 H          2.3179403470        2.7407853538       -1.0146538486
 H          4.4952828040        1.7315030248       -0.4275911169
 H          4.5799531818       -0.6124125542        0.3465340392
 H          2.5275041407       -1.9173934202        0.5521611394
 H         -2.0297018130       -0.7410147360       -1.8191151884
 H         -4.0180237679        0.6898586879       -1.6116130978
 H         -4.3684162543        2.0325176481        0.4317291592
 H         -0.7323868829       -2.6281168330       -1.0889779544
 H          0.2992637716       -1.5666117506        2.1189614539
 H         -1.0336212191       -2.4806892282        1.4044080828
 H          0.6390788898       -2.9305977109        1.0493868344
 H         -0.7285149295        0.5028074336        2.0477835747
 H         -2.7069134824        1.9360008237        2.2551815348
  29
        -41.15986127
 C          2.4743750603       -0.9151201873       -0.0022457740
 C          3.6386577897       -0.1760424877       -0.1076823983
 C          3.5859512938        1.2070048178       -0.1142578800
 C          2.3602018861        1.8407712324       -0.0126934256
 C          1.1950011129        1.0999215285        0.0901132975
 C          1.2361345263       -0.2883396627        0.0933684867
 C         -0.0308388816       -1.1365128037        0.2258193203
 C         -1.2737091674       -0.2789073296        0.0485826621
 C         -1.9597031538        0.2764882253        1.1216649669
 C         -3.0773825021        1.0652100417        0.9081008198
 C         -3.5278970960        1.3093311416       -0.3774421138
 O         -0.0892309617       -2.1148180891       -0.8108594748
 C          0.0006461918       -1.8372649972        1.5945330892
 C         -1.7283780748       -0.0206257863       -1.2399300376
 C         -2.8483360180        0.7622885332       -1.4523126765
 H          2.5442628043       -1.9933554379        0.0100563091
 H          4.5891070367       -0.6828969369       -0.1821169249
 H          4.4933796366        1.7856843892       -0.1964066285
 H          2.3061249926        2.9191146271       -0.0146757562
 H          0.2470447851        1.6103671827        0.1667962907
 H         -1.6266452733        0.1070769868        2.1328775914
 H         -3.5982129642        1.4904020259        1.7532044615
 H         -4.4013256749        1.9226408350       -0.5404288734
 H          0.6705832175       -2.7064673456       -0.7350354587
 H          0.1740838356       -1.1178092861        2.3891141982
 H         -0.9392675556       -2.3563062386        1.7662606464
 H          0.8104366104       -2.5632071041        1.6154991674
 H         -1.1978042326       -0.4487464828       -2.0761485488
 H         -3.1882725382        0.9474854390       -2.4603495463
  29
        -41.15959198
 C          1.8272984943       -0.5134303637       -1.1887644193
 C          2.9653225581        0.1622897825       -1.5943889771
 C          3.5692793423        1.0789857781       -0.7531073216
 C          3.0245554598        1.3114488467        0.4980981900
 C          1.8899488330        0.6319866879        0.9043339784
 C          1.2738091276       -0.2936681836        0.0669740182
 C          0.0108352778       -1.0299655691        0.4981047470
 C         -1.2366474768       -0.2088272559        0.1778752612
 C         -1.1977049282        1.1637732396       -0.0264554266
 C         -2.3627792836        1.8656889579       -0.2854893442
 C         -3.5791957462        1.2079028663       -0.3426202006
 O         -0.0701782478       -2.3088217263       -0.1270706437
 C          0.0160663643       -1.3245009258        2.0073489379
 C         -2.4628321711       -0.8620428015        0.1196725644
 C         -3.6260734598       -0.1607532736       -0.1390645091
 H          1.3807204784       -1.2274977516       -1.8635130472
 H          3.3786171600       -0.0299589341       -2.5732430820
 H          4.4561200793        1.6073973828       -1.0685355703
 H          3.4849261254        2.0257603059        1.1644322714
 H          1.4834560709        0.8338448986        1.8823973157
 H         -0.2564045178        1.6906293654        0.0122059429
 H         -2.3168887075        2.9326979812       -0.4443107462
 H         -4.4854060481        1.7586933660       -0.5444003637
 H         -0.3033169133       -2.1970558966       -1.0573101672
 H         -0.7779581887       -2.0354743700        2.2192740838
 H          0.9659765280       -1.7680637115        2.2931214287
 H         -0.1614095341       -0.4217859524        2.5823159094
 H         -2.4979568584       -1.9300200207        0.2789232610
 H         -4.5697529298       -0.6837632182       -0.1792276764
