38
-115.13517440733
 N   77.36739800   11.71757800   -6.05340500
 N   77.52533400   11.46960900   -8.24397000
 C   78.19740100   11.62959400   -7.13117800
 C   74.89519600   11.59513300   -5.61036700
 C   77.86432400   12.00390200   -4.73145200
 C   78.54695900   10.78779900   -4.10655100
 C   76.32661500    8.02585300   -7.87796800
 C   73.98686500   12.78242300   -5.93905300
 C   81.73515000   12.65769100   -7.76644700
 C   73.40148300   11.78324000  -12.85238300
 C   73.07833100   12.84433100  -13.67988200
 C   80.30139300   11.08467600   -5.94439900
 C   81.67101900   11.24733300   -5.79744600
 C   75.47588400   12.84329000  -12.29784200
 O   73.97355900   11.30369500   -8.75056300
 C   75.19427900   11.22264500   -8.92898700
 N   75.73863600   10.97201600  -10.13179600
 C   74.95808100   10.58985000  -11.28676100
 C   75.73212900    9.54960800  -12.11359500
 O   76.03502000    8.38337200  -11.39015400
 C   74.60226600   11.77337600  -12.15534600
 C   75.15056500   13.90684500  -13.12190700
 C   73.95341900   13.90886200  -13.81689100
 C   76.20449000   11.42865500   -7.88363100
 C   76.08850000   11.58109200   -6.50822500
 C   74.12810800   10.27460100   -5.71317800
 C   79.64304500   11.73758400   -6.99619800
 C   82.35546500   12.04105300   -6.69673200
 F   83.69882200   12.20101600   -6.53145500
 C   80.36999500   12.49825500   -7.90868900
 C   79.55256800   10.11287600   -5.05441200
 O   78.82553900    9.17377000   -5.83738500
 C   75.69664500    6.66124100   -7.59340100
 O   74.88807400    6.69430300   -6.43102500
 C   74.88547300    6.19232700   -8.80902800
 C   73.73581800    7.18621000   -9.08511200
 O   72.92921500    7.39977300   -8.15273500
 O   73.67492700    7.71543500  -10.21821800
38
-115.13229638848
 N   79.39300900    8.00127000   -2.71757000
 N   77.30572400    7.73166900   -3.40038800
 C   78.52017600    8.05125500   -3.76872700
 C   79.26930200    7.50724700   -0.24724400
 C   80.83314000    8.08640900   -2.81271800
 C   81.49178700    6.70397900   -2.76135300
 C   80.67445300    4.46797400   -3.68891000
 C   78.65799200    8.56057200    0.68195200
 C   79.82387100   10.13801600   -6.60078800
 C   71.62223900    7.66023000   -1.78191400
 C   70.56717000    8.23474200   -2.46880900
 C   78.54096900    7.69716600   -6.21248100
 C   78.84999800    8.10876500   -7.49592500
 C   72.67444400    7.09732500   -3.85754000
 O   76.05351300    6.96416900   -0.12230000
 C   76.14467200    7.06521300   -1.35181300
 N   75.09899200    6.87883400   -2.17221100
 C   73.80663400    6.43463100   -1.70405700
 C   73.67769500    4.88847600   -1.75897600
 O   73.70953900    4.36606600   -3.06228500
 C   72.68664500    7.08970400   -2.46855700
 C   71.61859200    7.67145500   -4.54422500
 C   70.56417400    8.24326300   -3.85316500
 C   77.36817100    7.46327000   -2.05742200
 C   78.67101700    7.62347100   -1.61356000
 C   79.06789100    6.10359000    0.32841600
 C   78.87644100    8.49039000   -5.11823100
 C   79.48886400    9.32223800   -7.66393400
 F   79.79805500    9.73352600   -8.92733800
 C   79.51072100    9.71520100   -5.32168900
 C   81.25349600    5.85379900   -4.02169800
 O   82.50277600    5.75561100   -4.67947800
 C   79.16906600    4.56182700   -3.43091100
 O   78.53715100    4.84450400   -4.66353100
 C   78.58038800    3.29336100   -2.80274700
 C   77.09592100    3.56047200   -2.46972500
 O   76.70176000    3.38485000   -1.30768700
 O   76.37825400    3.96784300   -3.42504100
