43
-70.70909516905
 C   10.63401400   64.76303900    4.92862100
 C   12.00581200   64.18743300    5.08599600
 C   12.35933700   62.98506900    4.47047900
 C   13.64107800   62.49548100    4.64675000
 C   14.53137600   63.21494800    5.42617200
 C   14.09377300   64.40719700    5.99845500
 N   12.85890300   64.87481400    5.82857700
 C   15.00072100   65.21448200    6.83156000
 N   14.51522600   66.38471200    7.25971400
 C   15.27219900   67.15903300    8.01489500
 N   14.78879200   68.34165700    8.44744300
 C   13.55081100   68.94814800    8.21583400
 C   13.36481500   70.20830000    8.83122000
 C   12.20646300   70.92971000    8.69275500
 C   11.20011100   70.36927900    7.90841900
 N    9.96060400   70.79797000    7.56266800
 N    9.33385600   69.91221600    6.77247600
 C   10.14928300   68.90139300    6.59481700
 C   11.37124100   69.10738500    7.28650800
 C   12.55566900   68.38445000    7.44013500
 C   16.60689700   66.74937200    8.37763900
 C   17.50503900   67.47546200    9.17399800
 C   18.75463200   66.97790700    9.44646300
 C   19.15301400   65.73859300    8.93386900
 C   18.29998600   65.00517900    8.15369900
 C   17.01164000   65.49131200    7.85924300
 N   16.19644200   64.73403700    7.08571000
 H   10.52770200   65.62300600    5.58260000
 H   10.47809400   65.07628200    3.89812800
 H    9.88017200   64.01965000    5.17645300
 H   11.63759500   62.45330100    3.87038100
 H   13.94426300   61.56740100    4.18505100
 H   15.54157000   62.88604700    5.60260800
 H   15.41187900   68.88627400    9.02807100
 H   14.16606900   70.61403800    9.43137700
 H   12.08211700   71.88834900    9.16944600
 H    9.49489700   71.65276300    7.81956900
 H    9.85826600   68.06709500    5.98942000
 H   12.69136700   67.42385800    6.97362000
 H   17.22670600   68.43503100    9.58356500
 H   19.43777200   67.54419000   10.06024200
 H   20.13956200   65.36265800    9.15779300
 H   18.58175300   64.04749100    7.74657600
43
-70.70897114497
 C   14.77376900   65.84330500   16.70400800
 C   15.16585700   67.07332800   15.94823200
 C   15.32517300   68.30017600   16.59557600
 C   15.68574200   69.40776200   15.84925900
 C   15.87764600   69.26296200   14.48529800
 C   15.69753400   68.00095300   13.92389400
 N   15.34931500   66.93725800   14.64475800
 C   15.89009300   67.78772400   12.47994200
 N   15.66814100   66.54411300   12.04091100
 C   15.81904600   66.27510400   10.75770900
 N   15.60091500   65.02184800   10.30777700
 C   15.19932600   63.86471700   10.98085500
 C   14.94272900   63.84427400   12.36919300
 C   14.54503700   62.69554000   13.00708800
 C   14.40020500   61.53967500   12.24250800
 N   14.03057300   60.27160900   12.55266000
 N   14.03130400   59.47618600   11.47239500
 C   14.39872800   60.20767700   10.44802600
 C   14.65524800   61.54422600   10.84871500
 C   15.05803200   62.71939200   10.21572100
 C   16.21625800   67.31133900    9.83577000
 C   16.40204000   67.15856900    8.45363400
 C   16.78416100   68.22488800    7.67903600
 C   16.99558500   69.48179400    8.25590900
 C   16.82090500   69.66461500    9.60133500
 C   16.42681300   68.58838600   10.41953500
 N   16.25959500   68.81199100   11.74580200
 H   14.77660900   64.99231100   16.03051900
 H   15.46853000   65.66553200   17.52150700
 H   13.77781900   65.96620300   17.12449000
 H   15.16788300   68.37362500   17.66038100
 H   15.81650900   70.37061800   16.32072100
 H   16.15926000   70.08650100   13.85107300
 H   15.74313900   64.88223100    9.31635900
 H   15.06738900   64.75994200   12.92298700
 H   14.35068600   62.69196600   14.06711400
 H   13.77577500   59.89334300   13.45019700
 H   14.47079800   59.77635800    9.46984300
 H   15.25154700   62.72457900    9.15334100
 H   16.24571400   66.20101700    7.97941500
 H   16.92361500   68.09646900    6.61687800
 H   17.29718300   70.30932200    7.63225200
 H   16.97650700   70.62309700   10.06950100
43
-70.70724819603
 C   10.11529700   64.61938100    5.53746200
 C   11.53970600   64.69319000    5.08613900
 C   11.90554500   64.29760500    3.79797200
 C   13.23392300   64.38475000    3.42479100
 C   14.15539000   64.86397600    4.34098500
 C   13.70101400   65.23846700    5.60388200
 N   12.42230100   65.15134600    5.96064100
 C   14.65218900   65.75134300    6.60748200
 N   15.78377300   66.27813900    6.10739600
 C   16.69001500   66.75256200    6.94416200
 N   17.84003900   67.27327600    6.46280900
 C   18.27026400   67.45173900    5.14623000
 C   19.62379700   67.82944400    4.98372700
 C   20.18113100   68.04855200    3.74979500
 C   19.35470000   67.88298900    2.63962700
 N   19.57052200   68.01226700    1.30686400
 N   18.46090600   67.75314600    0.59872800
 C   17.51169000   67.45521900    1.45271500
 C   17.99481000   67.51267900    2.78551900
 C   17.44453200   67.29914300    4.05029200
 C   16.47065500   66.70913500    8.36793000
 C   17.34784500   67.19033500    9.35227500
 C   17.02418900   67.08948600   10.68173400
 C   15.81553600   66.50542600   11.07739900
 C   14.93678700   66.02996800   10.14160000
 C   15.24206700   66.12353700    8.77022200
 N   14.34444100   65.64797900    7.87433700
 H   10.04401100   64.95777700    6.56580400
 H    9.48953800   65.24596100    4.90546800
 H    9.75322700   63.59613000    5.46612300
 H   11.15685000   63.93121400    3.11313500
 H   13.55093500   64.08411200    2.43708000
 H   15.20344000   64.94443000    4.10430100
 H   18.51987200   67.54637600    7.15921100
 H   20.23613500   67.94730400    5.86539100
 H   21.21433400   68.33624600    3.64448000
 H   20.42015200   68.26165700    0.82756000
 H   16.52614300   67.21143900    1.11048000
 H   16.41144400   67.02697100    4.17242400
 H   18.28557400   67.65128900    9.07951000
 H   17.70469600   67.46334400   11.43091000
 H   15.57880400   66.43393900   12.12784900
 H   13.99720800   65.57892600   10.41563500
43
-70.70724757848
 C   13.71841100   65.87997100    1.87645700
 C   14.84600400   65.22583900    2.61043800
 C   15.56756000   64.17987000    2.03148600
 C   16.60062700   63.60501200    2.74806500
 C   16.88217100   64.08472000    4.01651700
 C   16.10880700   65.13049800    4.51659400
 N   15.11708300   65.68348800    3.82304200
 C   16.38074900   65.66905300    5.86244600
 N   17.02534300   64.83148000    6.69391100
 C   17.31475900   65.24277300    7.91605900
 N   17.96786100   64.41754500    8.76339100
 C   18.39507900   63.09926600    8.58903000
 C   19.25975200   62.59124700    9.58682000
 C   19.75003200   61.31075900    9.55016800
 C   19.36074500   60.51072000    8.47719300
 N   19.64903700   59.23061200    8.13420000
 N   19.03203600   58.87193900    6.99825600
 C   18.33668500   59.90461000    6.58710300
 C   18.48852200   61.00145300    7.47422300
 C   17.99642700   62.30623900    7.53159100
 C   16.95173300   66.56785400    8.35094200
 C   17.20157800   67.11714600    9.61814500
 C   16.80391800   68.39690200    9.91226600
 C   16.14346200   69.17447500    8.95425200
 C   15.88262900   68.66681400    7.71002100
 C   16.27776500   67.35573400    7.38182000
 N   15.99992000   66.88871500    6.14137200
 H   13.29946900   66.67142100    2.48895800
 H   14.07599100   66.29775200    0.93793600
 H   12.94521200   65.14884100    1.65018000
 H   15.31565700   63.83406500    1.04114000
 H   17.18099800   62.79651500    2.32860500
 H   17.68102300   63.67732000    4.61365600
 H   18.22675300   64.82136100    9.65315400
 H   19.54230800   63.23885200   10.40342100
 H   20.40777900   60.93976500   10.31902900
 H   20.24096800   58.56941500    8.60981400
 H   17.75502400   59.84912400    5.68908700
 H   17.32767200   62.68509000    6.77964100
 H   17.70528100   66.54146700   10.38044100
 H   17.00006200   68.81005700   10.88947600
 H   15.83905500   70.17936000    9.20354600
 H   15.37427500   69.24066000    6.95261600
43
-70.7068497504
 C   23.33102000   67.02371900   14.36363300
 C   22.28370100   66.02911100   13.97409000
 C   22.18275300   64.79973100   14.62865600
 C   21.19912000   63.91196600   14.23383300
 C   20.34888100   64.27194900   13.20141600
 C   20.52332500   65.51870700   12.60397300
 N   21.47014100   66.37141400   12.98714300
 C   19.63459300   65.94047000   11.50580800
 N   19.02591400   64.93985300   10.84469500
 C   18.20848500   65.23687300    9.85004500
 N   17.57379700   64.24861600    9.18133000
 C   17.62918100   62.86094400    9.33280700
 C   18.64865400   62.22760000   10.07419100
 C   18.70477100   60.86232700   10.20586700
 C   17.71760100   60.10917400    9.57360000
 N   17.48431100   58.77468700    9.50167200
 N   16.40099200   58.50032700    8.76022900
 C   15.91383300   59.64238600    8.33956300
 C   16.69417400   60.72845900    8.81353800
 C   16.65363200   62.11688100    8.69235600
 C   17.97545000   66.60898800    9.47519700
 C   17.14678300   67.04882600    8.43132600
 C   17.00356700   68.38894700    8.17437700
 C   17.68084400   69.33808400    8.94835400
 C   18.50021800   68.94127100    9.97064500
 C   18.66841400   67.57227200   10.25386000
 N   19.49365500   67.21865700   11.26774000
 H   23.23878700   67.90817600   13.74210800
 H   23.21168800   67.30147500   15.40859400
 H   24.32218800   66.59337100   14.23771500
 H   22.86551000   64.55672800   15.42775200
 H   21.09222900   62.95446900   14.72163500
 H   19.56108500   63.62174900   12.85923400
 H   16.89140200   64.55508400    8.50125600
 H   19.39193400   62.85049100   10.54056500
 H   19.49055900   60.39270000   10.77469500
 H   18.00685700   58.02185800    9.91876900
 H   15.03730900   59.66653000    7.72410100
 H   15.87530700   62.59016900    8.11314900
 H   16.61575300   66.34146700    7.81168800
 H   16.36469900   68.71684200    7.36915600
 H   17.55447800   70.38772400    8.73210900
 H   19.03771400   69.64845100   10.58074700
43
-70.70682951175
 C   25.52482100   66.00804900    7.10056900
 C   24.38997300   66.93064100    6.78579900
 C   24.61810200   68.16299500    6.17024500
 C   23.53882600   68.98196600    5.89493500
 C   22.26806700   68.55055100    6.23757000
 C   22.13376200   67.30537000    6.84840300
 N   23.17426200   66.52004200    7.11339400
 C   20.79594600   66.81465900    7.22864200
 N   19.77556200   67.34273100    6.52989200
 C   18.54264100   66.95916200    6.81135700
 N   17.50112500   67.47680000    6.12340200
 C   17.46120800   68.39545800    5.07196700
 C   18.61905400   68.77809600    4.36268400
 C   18.56701700   69.67237600    3.32251000
 C   17.32193100   70.19409300    2.97752600
 N   16.92615900   71.07549400    2.02518100
 N   15.60098300   71.27927000    2.05868600
 C   15.11467900   70.54006200    3.02604600
 C   16.14684000   69.81054100    3.67070700
 C   16.22025200   68.90152700    4.72541900
 C   18.29394400   65.99762400    7.85616400
 C   17.03638000   65.51234000    8.24751000
 C   16.92939700   64.59418900    9.26137900
 C   18.07153800   64.12683800    9.92135500
 C   19.31266100   64.57880700    9.56198400
 C   19.45174000   65.51935800    8.52340600
 N   20.69684300   65.93929700    8.19487700
 H   25.14240500   65.11459400    7.58273400
 H   26.04668100   65.73146600    6.18689600
 H   26.23476600   66.50084400    7.76121000
 H   25.62363800   68.46150700    5.91802200
 H   23.68133900   69.94242000    5.42220700
 H   21.39343500   69.15177700    6.05257800
 H   16.58594900   67.19634200    6.44899400
 H   19.55734600   68.34379800    4.66088800
 H   19.46062400   69.95392200    2.78977500
 H   17.48761800   71.55805500    1.34275600
 H   14.06473800   70.54401500    3.23894400
 H   15.32573000   68.60777000    5.25355800
 H   16.13593500   65.85010600    7.75605100
 H   15.95795200   64.22721100    9.55424700
 H   17.96748900   63.40503200   10.71680600
 H   20.21021500   64.23605300   10.05015200
