55
-90.70218679643
 C   19.20233200   29.93667500    7.08533800
 N   20.21515700   29.61242400    6.07115200
 C   19.63748900   28.74301500    5.03427100
 C   20.78910000   30.82493000    5.45829100
 C   21.58272800   31.68808500    6.45154900
 N   22.61070100   32.41982400    5.72440000
 S   23.97518700   32.81045200    6.58314700
 O   24.75684000   33.69086400    5.74119100
 O   23.63690300   33.33163800    7.89828100
 C   24.77733900   31.23244700    6.78414300
 C   24.49134600   30.19645300    5.91365600
 C   25.06831200   28.96195000    6.13156500
 C   25.95121800   28.77038700    7.19621400
 C   26.26348800   29.83974400    8.03376800
 C   25.66280300   31.07126800    7.83274900
 C   26.43838200   27.41330200    7.45254300
 C   27.67446000   27.06859100    8.00924000
 N   28.03400000   25.81619400    8.20289100
 C   27.16013400   24.83627100    7.89940200
 C   25.87163800   25.19089400    7.40679300
 N   25.57117900   26.44780100    7.15358700
 C   24.79710200   24.20231500    7.15170400
 O   25.02124100   23.01408500    6.92055600
 N   23.54164900   24.70313000    7.14606300
 C   23.14895300   25.94777200    7.66964100
 C   23.49400000   26.31688700    8.97179900
 C   23.10577200   27.55580300    9.44506300
 C   22.36003600   28.37798000    8.61485500
 N   21.98792800   28.01100900    7.39724400
 C   22.36532900   26.82977200    6.93083600
 N   27.52817200   23.57297700    8.10075500
 H   19.63527600   30.54337200    7.87403200
 H   18.37806400   30.48185600    6.63024900
 H   18.81830500   29.01983700    7.52388500
 H   20.39774000   28.47144300    4.30793900
 H   19.24809600   27.83857400    5.49270100
 H   18.82569300   29.25427400    4.52146000
 H   19.98265300   31.41163200    5.01463900
 H   21.47258200   30.52178800    4.66507300
 H   22.12343300   31.05654100    7.15882700
 H   20.94144300   32.37078200    7.01551900
 H   22.27709800   33.19951400    5.17831500
 H   23.82635400   30.36890200    5.08642300
 H   24.84344900   28.12576800    5.49074600
 H   26.94354000   29.70237400    8.85931200
 H   25.85320400   31.90586800    8.48853000
 H   28.40975700   27.81375100    8.27801500
 H   22.81859400   24.08074600    6.80368200
 H   24.06872900   25.64096400    9.58741600
 H   23.36659400   27.87101700   10.44177800
 H   22.03938700   29.35400000    8.94780200
 H   22.04158000   26.57807000    5.93232700
 H   26.91107900   22.83419900    7.79563700
 H   28.46025400   23.37846500    8.42440100
 H   20.98683200   29.04649100    6.55636000
55
-90.70164778509
 C    9.63676900   12.61481400   26.30908900
 N   11.07524800   12.82363500   26.52829900
 C   11.29689700   14.04014600   27.32649200
 C   11.71887600   11.67351700   27.19389100
 C   11.56430700   10.34024500   26.44282000
 N   12.42122400    9.31067900   26.99782400
 S   13.84741900    8.94815400   26.25270900
 O   14.58252900    8.11916000   27.18291800
 O   13.53645200    8.37949000   24.95903600
 C   14.67069700   10.51099600   25.99195100
 C   14.61801200   11.08444700   24.73519500
 C   15.10362500   12.36484100   24.56047700
 C   15.63006100   13.07388100   25.64244700
 C   15.72326300   12.45638100   26.89158400
 C   15.23877300   11.17165800   27.06688700
 C   15.99815200   14.47645500   25.44627400
 C   16.96293900   15.16618000   26.19233600
 N   17.21059100   16.44265000   26.00671700
 C   16.50244000   17.11513000   25.07641000
 C   15.53502100   16.40816900   24.29310500
 N   15.33029000   15.12128500   24.49122800
 C   14.78107900   17.07534300   23.21139200
 O   15.04466100   18.22808300   22.85277200
 N   13.81289800   16.39664800   22.55358600
 C   13.24862500   15.12783400   22.74817600
 C   13.11848200   14.26823500   21.65893300
 C   12.51415500   13.03420300   21.83993000
 C   12.04429400   12.70767900   23.09910000
 N   12.14131400   13.53627300   24.13349100
 C   12.72132800   14.71319800   23.97131800
 N   16.73297100   18.41660700   24.95143100
 H    9.47219300   11.79607500   25.61672900
 H    9.14094000   12.39434400   27.25190500
 H    9.20175800   13.51554400   25.88510900
 H   12.36215200   14.21037100   27.45694900
 H   10.86292300   14.89501300   26.81586900
 H   10.82974900   13.94120400   28.30410900
 H   11.28317500   11.56476300   28.19046500
 H   12.78225800   11.89455200   27.29825200
 H   11.85601100   10.43339300   25.39597100
 H   10.53651000    9.97470700   26.49731000
 H   12.47079100    9.26056000   28.00169900
 H   14.19846700   10.51413300   23.92274400
 H   15.07320800   12.83788400   23.59330700
 H   16.14116000   12.98959000   27.73000400
 H   15.28826100   10.67490000   28.02235400
 H   17.57188000   14.67541400   26.93802600
 H   13.51098400   16.87612600   21.71073900
 H   13.49072000   14.56257400   20.68970100
 H   12.40914200   12.34741400   21.01652300
 H   11.56027100   11.76053100   23.28507600
 H   12.76346400   15.35904300   24.83442900
 H   16.27333600   18.91874600   24.20293400
 H   17.44909200   18.83964000   25.51788400
 H   11.53104000   13.01100800   25.57145000
55
-90.70155346451
 C   13.21773800   22.33638100   11.62684800
 N   12.75925300   23.50611100   12.39498900
 C   13.26711900   23.43586300   13.77376000
 C   13.15645300   24.77482800   11.74464400
 C   12.20281000   25.18718600   10.62087500
 N   10.95279900   25.71799900   11.16168400
 S    9.64844500   24.71570300   11.31547100
 O   10.00001400   23.74698100   12.34293100
 O    8.50888700   25.55864100   11.58709100
 C    9.47019500   23.83951200    9.77289500
 C    8.90787600   24.48306100    8.68641600
 C    8.85662300   23.83219300    7.46579400
 C    9.38528100   22.54732500    7.33718400
 C    9.92675100   21.90990000    8.45619500
 C    9.96974800   22.55297700    9.67525600
 C    9.45605400   21.84666800    6.05438300
 C    8.60265500   22.03109900    4.96215400
 N    8.72025300   21.33437400    3.84981700
 C    9.71809700   20.43565700    3.75032100
 C   10.62791700   20.29260400    4.83763400
 N   10.45114300   20.96432700    5.95437600
 C   11.78916800   19.36896400    4.81082100
 O   11.82713200   18.37124600    4.08835900
 N   12.78082500   19.66161100    5.67603800
 C   12.97562500   20.90907000    6.30508300
 C   13.05402100   22.07408300    5.54313100
 C   13.25120600   23.28117200    6.18671900
 C   13.36792700   23.27857600    7.56831200
 N   13.31418600   22.17522200    8.29785300
 C   13.13312900   21.01811800    7.68522900
 N    9.83404100   19.73845800    2.62124500
 H   12.96775100   22.42181100   10.57083100
 H   14.29868700   22.25279300   11.71646400
 H   12.76331700   21.43423600   12.02603900
 H   12.83279400   24.22897700   14.37634800
 H   12.99737900   22.48144900   14.21775200
 H   14.35070000   23.53366600   13.77198100
 H   14.16318600   24.65359000   11.34217500
 H   13.16179200   25.56821300   12.49215900
 H   11.99125500   24.34175200    9.96064800
 H   12.68180500   25.97180700   10.03721900
 H   10.67176600   26.61908800   10.81604400
 H    8.51133200   25.47829100    8.80728200
 H    8.43310700   24.33240300    6.60991300
 H   10.31895100   20.91329200    8.34406700
 H   10.36583400   22.06880700   10.55136200
 H    7.78053700   22.73226800    4.98449900
 H   13.49977100   18.95630800    5.78725200
 H   12.95439000   22.02084200    4.46854400
 H   13.31918100   24.19905900    5.62609600
 H   13.52894600   24.19754900    8.11137400
 H   13.10345800   20.14250700    8.31710500
 H   10.50285700   18.98264200    2.58868600
 H    9.13446400   19.84734300    1.90659200
 H   11.71904000   23.49842300   12.44297600
55
-90.70149253357
 C    7.20238400   20.46448400   18.39020700
 N    8.51635900   20.88863900   17.87309600
 C   10.26992700   20.74148500   14.69543300
 C    9.66067700   20.49650700   18.72676200
 C    9.94534100   18.99978400   18.57823600
 N   10.09913000   18.68199600   17.15836200
 S   11.68477600   18.66845600   16.59172100
 O   12.55638200   18.07901900   17.59158600
 O   11.63556700   17.99282200   15.31293200
 C   12.10094400   20.39416100   16.40580700
 C   13.16213400   20.85945600   17.16650200
 C   13.55601200   22.17729900   17.06704800
 C   12.88890000   23.03836900   16.19090900
 C   11.81735000   22.55319900   15.44598700
 C   11.40699000   21.22567900   15.53332800
 C   13.33766600   24.42686700   16.06892600
 C   13.19822000   25.18078900   14.89529500
 N   13.63123100   26.41663600   14.79105600
 C   14.22978300   26.98160500   15.85876000
 C   14.38463300   26.21685500   17.05425100
 N   13.94340400   24.97199300   17.12483300
 C   15.03513000   26.77145600   18.26661700
 O   15.52007500   27.90308400   18.30137400
 N   15.02011900   25.89741500   19.29759200
 C   15.52812200   26.03174500   20.58354200
 C   15.39222200   24.96118800   21.46938200
 C   15.89204400   25.08663100   22.75126400
 C   16.51039500   26.27729800   23.10673100
 N   16.64438600   27.29815300   22.27431500
 C   16.16917100   27.18339300   21.04767000
 N   14.64378800   28.23856300   15.74510800
 H    7.14893500   19.38286100   18.45433100
 H    7.03934300   20.88532300   19.37866900
 H    6.41422900   20.80938100   17.72738300
 H    9.93928400   19.75849300   15.00995100
 H    9.45495000   21.45991600   14.69602300
 H   10.61201200   20.64787900   13.66507700
 H    9.43692400   20.72106900   19.76960100
 H   10.54015300   21.06143400   18.41837500
 H    9.13251700   18.40534800   18.99163800
 H   10.86179100   18.74250100   19.11646000
 H    9.67639900   17.80470100   16.89004600
 H   13.66370900   20.16574900   17.82175900
 H   14.38762900   22.54839400   17.64180000
 H   11.28290700   23.21626200   14.78442000
 H    8.51147900   21.90817100   17.76091100
 H   12.75037200   24.77158000   14.00147100
 H   14.57329000   25.01071200   19.06778700
 H   14.90512400   24.05226800   21.15033000
 H   15.80687900   24.28151500   23.46262700
 H   16.91817900   26.42813300   24.09617100
 H   16.30256100   28.04078800   20.40519600
 H   15.11831400   28.66502300   16.52958000
 H   14.51584600   28.71808900   14.87008800
 H    8.67956100   20.46155300   16.94960400
55
-90.70128605263
 C   26.53138100   24.40160000    7.98187500
 N   26.61508200   23.20476100    8.83326200
 C   27.50680000   23.44183000    9.97685700
 C   25.26065500   22.77863500    9.24457800
 C   25.25526700   21.54544400   10.15106800
 N   26.19143200   20.52350100    9.68695200
 S   26.06259300   19.91569700    8.14598500
 O   26.62362400   20.92719100    7.26590700
 O   26.74201400   18.64127600    8.16392700
 C   24.33247400   19.70873400    7.76556300
 C   23.61551800   18.74676500    8.45294600
 C   22.26982200   18.58170500    8.17991300
 C   21.64423700   19.38082900    7.22022300
 C   22.39140400   20.34582800    6.53970200
 C   23.73597700   20.50997200    6.80916000
 C   20.22208300   19.23080100    6.90891600
 C   19.50936300   18.03507500    7.07475800
 N   18.23361400   17.92398800    6.78130200
 C   17.58502100   19.00546100    6.30351700
 C   18.30960200   20.21953200    6.10917100
 N   19.59383000   20.29767200    6.41187600
 C   17.67181700   21.44675300    5.57019600
 O   16.49277700   21.48296200    5.21566700
 N   18.53297900   22.48666800    5.52733700
 C   18.33495000   23.79118000    5.09303100
 C   17.13232200   24.26736900    4.57354300
 C   17.06485600   25.59177000    4.17562300
 C   18.18951300   26.39251700    4.30776300
 N   19.33658900   25.94704300    4.79971900
 C   19.40577700   24.68697400    5.17932200
 N   16.28990100   18.88612500    6.03510100
 H   25.90071500   24.20690900    7.11908900
 H   26.11674000   25.22976700    8.55249300
 H   27.52156400   24.67550300    7.62862800
 H   27.69039400   22.51467700   10.50986300
 H   28.45878600   23.82932200    9.62444800
 H   27.05538500   24.17130500   10.64579900
 H   24.69299500   22.56557800    8.33818200
 H   24.78023500   23.60114600    9.77841100
 H   24.22841300   21.16380700   10.19218700
 H   25.56046500   21.80993800   11.16451100
 H   26.29829600   19.76295400   10.34008100
 H   24.11488900   18.12754600    9.18036100
 H   21.70312400   17.84421600    8.72430100
 H   21.90443000   20.94975100    5.79231400
 H   24.33484400   21.22836400    6.27336300
 H   19.98288300   17.13010700    7.42723000
 H   19.46153900   22.25395400    5.87577600
 H   16.27914900   23.61408400    4.48711100
 H   16.15081000   25.99364800    3.76934000
 H   18.17838100   27.43124600    4.00999000
 H   20.36085300   24.36882700    5.57377800
 H   15.80001200   19.68339900    5.65136700
 H   15.83700700   18.00152100    6.19166800
 H   26.98928100   22.42583900    8.25959100
55
-90.7008574352
 C   21.65889500   20.36760200    3.29902200
 N   20.19295400   20.25978300    3.35587300
 C   19.67908800   19.67122100    2.10950100
 C   19.74396000   19.47953100    4.53258400
 C   19.80196300   20.26697400    5.84669500
 N   18.74820400   21.24749400    6.00824500
 S   18.90126800   22.77214800    5.41896700
 O   19.21319700   22.72751900    3.98922700
 O   17.68773800   23.47279800    5.76157400
 C   20.31293400   23.41722000    6.28291200
 C   21.41457900   23.86776500    5.57938500
 C   22.50345200   24.36529200    6.27281200
 C   22.48511600   24.41031100    7.66798400
 C   21.36112500   23.94244100    8.35548700
 C   20.27257700   23.44716400    7.66541600
 C   23.62085400   24.93289800    8.42960700
 C   24.50949200   25.89848900    7.93561700
 N   25.51900800   26.35804100    8.63938000
 C   25.70870400   25.87800600    9.88501400
 C   24.79509800   24.91183800   10.40307200
 N   23.78568000   24.47293800    9.67062900
 C   24.92768100   24.34733600   11.76864800
 O   25.80005400   24.71221800   12.55783400
 N   23.99332100   23.40367500   12.01947900
 C   23.77412900   22.65057200   13.16569100
 C   24.53193600   22.76322800   14.33030400
 C   24.21066400   21.95393600   15.40670700
 C   23.15354900   21.06428100   15.28775100
 N   22.42897500   20.95037400   14.18388100
 C   22.73006600   21.71961600   13.15707500
 N   26.74949400   26.33245100   10.57387700
 H   22.05073200   20.79156300    4.21864100
 H   22.09135000   19.38077100    3.14609000
 H   21.94749400   21.01233300    2.47337000
 H   18.59256000   19.68519000    2.10397800
 H   20.03345400   20.24306500    1.25622700
 H   20.02654300   18.64404000    2.01779600
 H   20.37546600   18.59317500    4.61627300
 H   18.71474200   19.15931900    4.36525700
 H   20.74222200   20.81058600    5.94466200
 H   19.73110100   19.56323300    6.67777000
 H   17.80579700   20.91847900    6.12398000
 H   21.40421900   23.83053800    4.50224300
 H   23.37258700   24.70148600    5.73172900
 H   21.35416500   23.98534100    9.43201600
 H   19.39366700   23.09234800    8.17681900
 H   24.39053000   26.33778700    6.95577400
 H   23.36335600   23.24239700   11.23528300
 H   25.34722500   23.46644900   14.38401200
 H   24.77475200   22.01505600   16.32324700
 H   22.86972000   20.41412200   16.10293300
 H   22.11140800   21.59247100   12.27923200
 H   26.88681100   26.00225400   11.51961700
 H   27.35471100   27.01589000   10.15107000
 H   19.80401100   21.22451100    3.45167000
55
-90.70067489869
 C   21.38106300    7.16543000    3.95388600
 N   19.93552400    7.41852300    4.02895000
 C   19.29957500    6.52053300    5.00502400
 C   19.61719600    8.82595800    4.35072100
 C   20.26029500    9.83134200    3.39332400
 N   20.14565200    9.40163400    2.00121000
 S   18.65184000    9.07763100    1.35317700
 O   18.80859300    9.17803900   -0.07907700
 O   18.26334800    7.77213200    1.86162100
 C   17.50044300   10.30085400    1.95261000
 C   16.41679700    9.91273300    2.71789600
 C   15.53155300   10.87189500    3.17537900
 C   15.73432500   12.21845100    2.86682000
 C   16.84066300   12.58553600    2.09522600
 C   17.72375400   11.62863600    1.63467500
 C   14.81258200   13.25638600    3.33079500
 C   13.45786400   13.02473300    3.60875000
 N   12.64610300   13.97352100    4.01603900
 C   13.13703600   15.21931000    4.17434300
 C   14.50947200   15.46787900    3.87130000
 N   15.30020100   14.49134300    3.46030500
 C   15.11808700   16.81469500    4.00255200
 O   14.46999700   17.80798800    4.33434500
 N   16.43985100   16.80328900    3.72117400
 C   17.35850700   17.84507500    3.71952800
 C   17.03649900   19.16995000    4.00996200
 C   18.04550200   20.11710300    3.97215400
 C   19.33324100   19.71604200    3.64938500
 N   19.64773800   18.45865900    3.37277700
 C   18.69032500   17.55370000    3.40657400
 N   12.30991700   16.16190000    4.61114700
 H   21.81630100    7.71078200    3.12292900
 H   21.85334200    7.46959800    4.88548500
 H   21.55905400    6.10478600    3.79887400
 H   18.22647800    6.68857700    5.02670100
 H   19.47985100    5.48532600    4.72912500
 H   19.71374100    6.70155300    5.99451500
 H   19.96314300    9.04251000    5.36339300
 H   18.53223900    8.93414200    4.31559700
 H   21.32598500    9.93603800    3.60160800
 H   19.78261200   10.80418000    3.55707900
 H   20.67275900    9.97937300    1.36504200
 H   16.27189800    8.86623900    2.93246700
 H   14.69312400   10.57570600    3.78393400
 H   16.98572000   13.62560900    1.85420000
 H   18.56576300   11.89861000    1.01841800
 H   13.00255800   12.05441200    3.47333000
 H   16.79112300   15.87929200    3.47575400
 H   16.02336900   19.44261200    4.25749100
 H   17.83234900   21.15094200    4.19048600
 H   20.14961000   20.42289400    3.60891900
 H   18.99407900   16.54229900    3.17337900
 H   12.65857000   17.10629100    4.70684900
 H   11.35215700   15.92111500    4.80347400
 H   19.50501800    7.24274200    3.10184400
