28
-85.3436024113
 C    1.38501200   11.10565000  -42.95487600
 C    2.09202900   12.25579600  -42.24189200
 C    1.14283700   13.41884000  -41.91489000
 N    0.14948600   12.98175500  -40.89885000
 C   -1.00296000   13.89411400  -40.63085700
 C   -2.15519300   13.05285600  -40.09183600
 C   -0.61307400   14.99779500  -39.63786100
 C    0.06280600   14.47609800  -38.38843800
 O    0.47353200   13.30926300  -38.30579900
 N    0.23417400   15.35697600  -37.41111300
 C    0.82904500   15.03314300  -36.11940800
 C    2.31525900   14.67526100  -36.21637600
 N    2.48366100   13.23895100  -36.53969600
 C    1.91379200   14.64296600  -41.48069700
 C    1.85224100   15.81323400  -42.23178200
 C    2.56265600   16.94116600  -41.86500700
 C    3.35477300   16.93890300  -40.72743900
Cl    4.19637900   18.39791200  -40.25053900
 C    3.46524400   15.77579700  -39.96019300
 O    4.14813400   15.67323900  -38.78468200
 C    5.43701300   16.15773900  -38.68611800
 C    5.85128800   16.60493700  -37.43858700
 C    7.15199500   17.04326900  -37.27094900
 C    8.03524900   17.03661500  -38.33833900
 C    7.61685600   16.57809200  -39.57670000
 C    6.32018200   16.13109000  -39.75662300
 C    2.74207700   14.65212700  -40.36657600
 F    2.85371900   13.54845100  -39.59440800
28
-85.34355920561
 C   -2.51137400   14.88482500  -44.10384900
 C   -1.06292300   15.35759600  -44.03178000
 C   -0.27142500   14.57427300  -42.97288100
 N    1.14286300   15.04437900  -42.96313600
 C    2.17356500   14.05724200  -42.52392000
 C    3.54251800   14.58552900  -42.93782600
 C    2.09566500   13.84009400  -41.00803300
 C    2.13823000   15.12511800  -40.21089100
 O    1.89121900   16.22189000  -40.73405100
 N    2.40830900   14.99254900  -38.92008300
 C    2.56020000   16.09658900  -37.97879300
 C    1.29599400   16.94590800  -37.82146500
 N    1.25904300   18.00111200  -38.85908000
 C   -0.90121600   14.73689300  -41.60905600
 C   -1.00831100   15.98364900  -40.99868700
 C   -1.60002900   16.11765900  -39.75692400
 C   -2.10223000   15.01135900  -39.08838400
Cl   -2.80161000   15.18695600  -37.49193700
 C   -2.04791100   13.74841400  -39.68602600
 O   -2.46021500   12.59016900  -39.09157500
 C   -3.70813400   12.52331400  -38.51627200
 C   -4.78525700   13.27071700  -38.97678100
 C   -6.02171900   13.12315500  -38.37391000
 C   -6.19033400   12.23320700  -37.32649500
 C   -5.11566300   11.47808100  -36.88393900
 C   -3.87319700   11.62016100  -37.47293100
 C   -1.43985200   13.64757400  -40.93939500
 F   -1.36723800   12.41813200  -41.50556500
28
-85.34350186497
 C    8.20217600   12.33444700  -36.91667400
 C    6.95771200   13.19757600  -36.73353000
 C    5.71261800   12.41498700  -36.27339900
 N    5.33786100   11.43005700  -37.31738700
 C    4.11961900   10.60984100  -37.05507900
 C    2.86118400   11.42603300  -37.30574900
 C    4.16011600    9.36957200  -37.96354000
 C    5.40704500    8.54432400  -37.74420900
 O    6.51859700    9.09985700  -37.67593300
 N    5.25478000    7.23765300  -37.60752300
 C    6.34948700    6.28143200  -37.47536200
 C    7.21377200    6.51950900  -36.23224900
 N    8.30648200    7.47010000  -36.54119300
 C    5.95687000   11.76377700  -34.93248600
 C    6.53292100   10.50525600  -34.77743800
 C    6.78265100    9.98418600  -33.52143400
 C    6.47513600   10.70977100  -32.38207600
Cl    6.86241500   10.07329500  -30.79760100
 C    5.88308500   11.97136800  -32.49412100
 O    5.60598000   12.79724000  -31.44229700
 C    4.92169100   12.31272200  -30.35073300
 C    3.99371300   11.28278600  -30.44444100
 C    3.30992100   10.87907100  -29.31180600
 C    3.53798700   11.49918200  -28.09509900
 C    4.45268400   12.53697000  -28.01190100
 C    5.14751300   12.94659500  -29.13465300
 C    5.64400300   12.46577000  -33.77762900
 F    5.07692800   13.69426500  -33.88443400
28
-85.34345517813
 C   -2.21052000   10.71353600  -40.12956000
 C   -1.07484200   11.38002100  -39.35715000
 C   -0.28438800   12.37222500  -40.22334300
 N   -1.13176400   13.56034900  -40.51922400
 C   -0.85420100   14.28274500  -41.79458000
 C   -2.03942000   15.19486800  -42.09053100
 C    0.45043400   15.08065200  -41.68256100
 C    0.50505500   15.98294700  -40.46948000
 O   -0.25207000   15.81803400  -39.50156600
 N    1.44099400   16.92136200  -40.49224400
 C    1.63237900   17.93453700  -39.46048700
 C    1.99100900   17.35322800  -38.08995600
 N    0.75957400   17.00672900  -37.34485500
 C    0.99128200   12.78199100  -39.52479600
 C    0.97381700   13.44291000  -38.29933400
 C    2.15084000   13.80723000  -37.67312200
 C    3.37914600   13.52350900  -38.25086100
Cl    4.86020200   14.04668300  -37.47557200
 C    3.43858100   12.82309700  -39.45963400
 O    4.58856000   12.54016600  -40.13868500
 C    5.65074800   11.96790600  -39.47647800
 C    5.48327200   11.11804800  -38.38981300
 C    6.59510400   10.54638900  -37.79732300
 C    7.86402100   10.80898700  -38.28585300
 C    8.02201300   11.64371600  -39.38089200
 C    6.92034300   12.22711300  -39.97848600
 C    2.23043200   12.47378500  -40.06752300
 F    2.28986900   11.81824300  -41.25307400
28
-85.34244225423
 C    1.20003800   15.06583500  -45.79605200
 C   -0.27488300   14.85614200  -46.13250300
 C   -0.83806800   13.55090600  -45.55111900
 N   -0.76161300   13.59666500  -44.06847900
 C   -1.33753800   12.43095200  -43.33819800
 C   -0.43176300   11.21595800  -43.46234300
 C   -1.53549400   12.83111500  -41.86866700
 C   -2.43605800   14.03708100  -41.71637000
 O   -2.37174300   14.98337500  -42.52020500
 N   -3.25441400   14.04601800  -40.67610700
 C   -4.24447800   15.08578600  -40.41516600
 C   -3.62423500   16.44705500  -40.08816700
 N   -3.33162000   17.19254700  -41.33492800
 C   -2.26582200   13.35582600  -46.00515600
 C   -3.30267600   14.15900400  -45.53821800
 C   -4.59446100   13.99493300  -46.00167000
 C   -4.87584700   13.01257200  -46.93485800
Cl   -6.49144100   12.77894300  -47.54447400
 C   -3.86587600   12.17899800  -47.42590400
 O   -4.17864800   11.26560200  -48.38793700
 C   -3.62901000    9.99910200  -48.32672600
 C   -3.35397300    9.36663900  -47.12146600
 C   -2.85370900    8.07721100  -47.12893600
 C   -2.63805200    7.41609100  -48.32580200
 C   -2.93024000    8.04710600  -49.52418100
 C   -3.42311200    9.33880800  -49.53091800
 C   -2.56979800   12.38755300  -46.95176900
 F   -1.56193800   11.61628100  -47.44005800
28
-85.3422685519
 C    8.69695400   22.53875700  -45.03835400
 C    8.51360000   21.02308700  -45.01795100
 C    7.39429700   20.55430100  -45.96026000
 N    7.80505300   20.78287100  -47.37253500
 C    6.71501400   20.95437000  -48.37682200
 C    7.31769800   21.58579300  -49.62679800
 C    6.06092300   19.60415200  -48.69271300
 C    7.04993600   18.52795600  -49.08357600
 O    8.24960700   18.60955200  -48.78230400
 N    6.54235300   17.47687800  -49.71193100
 C    7.32118200   16.34309700  -50.19833400
 C    8.04170600   15.57820800  -49.08404600
 N    9.36350600   16.18942900  -48.81735700
 C    7.08408700   19.09556700  -45.71413900
 C    8.04231200   18.10640600  -45.91824100
 C    7.75858700   16.77819800  -45.65861200
 C    6.50547200   16.41059100  -45.19902600
Cl    6.11618400   14.74418400  -44.86337700
 C    5.51845300   17.37402700  -44.96636800
 O    4.32779900   16.97756300  -44.43482000
 C    3.15910300   17.54152300  -44.91345800
 C    2.11935100   17.73370200  -44.01482900
 C    0.91531200   18.24162400  -44.46789200
 C    0.74902200   18.56155600  -45.80560700
 C    1.78780600   18.35838600  -46.69797900
 C    2.99360300   17.84373700  -46.25862800
 C    5.84433900   18.70782800  -45.22191700
 F    4.91019300   19.66538700  -44.98142100
