12
-40.51230097846
 C   10.85069200  -29.14725000    7.13205200
 O   10.44260600  -29.60100700    8.20543100
 O   11.20511800  -29.77012200    6.10875100
 C   10.95882500  -27.56935700    6.99960200
 N   11.43481600  -27.31651900    5.62599000
 C    9.60720700  -26.94366300    7.32164000
 C    9.66440200  -25.46502400    7.71242500
 C    9.85384200  -24.50502400    6.53230200
 N    8.74051100  -24.52852600    5.60775700
 C    8.73842600  -25.23896300    4.46131600
 O    9.72325800  -25.89055200    4.07726100
 N    7.60332500  -25.20091700    3.73559800
12
-40.51040495014
 C   10.42559600  -28.74138500    6.01812500
 O    9.69616700  -28.86373900    5.01062600
 O   11.02074900  -29.62278500    6.64661300
 C   10.58808600  -27.24750900    6.51770700
 N    9.94792600  -26.40195300    5.48978500
 C    9.99069100  -27.06546100    7.91529200
 C    8.63921300  -27.74997200    8.14289300
 C    7.43107200  -27.04980300    7.51048600
 N    7.18059900  -25.73846400    8.07010100
 C    7.60435800  -24.58561100    7.51332900
 O    8.23555300  -24.54792300    6.44487900
 N    7.31520900  -23.45478000    8.18743400
12
-40.5103904315
 C   10.80558500  -28.48429600    6.04477300
 O   11.47910900  -29.31314000    6.66566600
 O   10.32385300  -28.57932500    4.89550700
 C   10.49728500  -27.10557000    6.76069900
 N    9.85124800  -26.25336200    5.74218500
 C    9.64515300  -27.31075300    8.01563700
 C    8.49747800  -28.31501800    7.86944400
 C    7.27567700  -27.81055400    7.09348200
 N    6.60669800  -26.70730300    7.75009900
 C    6.80513100  -25.41109200    7.43632900
 O    7.56533600  -25.05070200    6.52305500
 N    6.13886900  -24.50552700    8.18030700
