19
-53.77789341026
Cl  -40.93474600   60.09287500    6.40744600
 C  -31.75738200   63.10105100    6.20474500
 C  -31.29349700   62.78920700    4.96258200
 C  -32.53656800   61.99827000    6.61655600
 C  -38.26133400   60.11309400    6.83018600
 C  -39.39299900   58.01653700    7.20644800
 C  -37.06194800   59.52137200    7.18373900
 C  -38.18442200   57.43681200    7.55274500
 C  -35.68500700   57.54047500    7.87575500
 N  -33.01190000   59.01658000    4.41491300
 N  -33.85065200   59.27734000    6.48457700
 N  -34.95304100   57.16769800    6.67331000
 N  -33.75057900   57.93087700    4.75976500
 O  -31.72904300   61.57720000    4.57866900
 C  -39.41844500   59.35241400    6.84632200
 C  -37.01132200   58.18070300    7.54869100
 C  -33.10164300   59.79882300    5.47353200
 C  -32.48739400   61.09238600    5.58698900
 C  -34.24413200   58.10567500    6.01204800
19
-53.7778889055
Cl  -38.78269500   57.60415200    1.08904300
 C  -30.75235900   54.40814600    5.23443300
 C  -29.91606800   55.48229000    5.28213200
 C  -32.03009400   54.89501000    5.58549100
 C  -39.05384300   58.02683300    3.74880800
 C  -37.10249700   56.79326000    3.05011600
 C  -38.64278400   57.91331000    5.06587700
 C  -36.70759200   56.68291900    4.37133000
 C  -36.99203300   57.16193900    6.81855300
 N  -32.59614300   58.50071000    6.39042100
 N  -34.15103500   56.87694400    6.41757900
 N  -36.01266400   58.19798600    7.11701500
 N  -33.80590800   59.01766400    6.72656000
 O  -30.58338200   56.59384800    5.63592600
 C  -38.27585300   57.46544700    2.75155600
 C  -37.47165100   57.24034100    5.39041500
 C  -32.84903100   57.21840200    6.20999900
 C  -31.87365600   56.23759900    5.82222800
 C  -34.72878600   58.02240300    6.74115000
19
-53.7778825271
Cl  -42.60427100   61.14960500    1.91521900
 C  -34.35045200   64.34187700    5.86674600
 C  -34.64877000   64.59580100    7.17134300
 C  -35.01161400   63.13696400    5.54451800
 C  -40.13167100   61.11149800    3.01574600
 C  -41.28188600   58.99550300    2.88355200
 C  -39.05039500   60.47924700    3.60290700
 C  -40.19453800   58.37759100    3.47724800
 C  -37.90565900   58.44983300    4.53466300
 N  -37.10101300   61.32409200    8.05717400
 N  -36.71839300   60.67452500    5.93883500
 N  -37.96419200   58.63765600    5.97756700
 N  -37.76241300   60.16726700    7.79644300
 O  -35.44421200   63.63750000    7.67634600
 C  -41.23954900   60.36050000    2.66015600
 C  -39.07038300   59.10906400    3.83860400
 C  -36.49303100   61.59427500    6.91782800
 C  -35.66666300   62.74598800    6.68523300
 C  -37.51568000   59.79014900    6.51608200
19
-53.77787983455
Cl  -37.38398700   56.94562700    0.69053500
 C  -35.91652300   52.58272300    9.15667700
 C  -37.15015500   52.18190800    9.57251100
 C  -36.08957400   53.87588600    8.61760400
 C  -37.63560100   58.83346800    2.61394300
 C  -36.90675400   56.65137600    3.33852300
 C  -37.56992300   59.27990700    3.92270000
 C  -36.84093300   57.11322600    4.64091500
 C  -37.14863700   58.89728500    6.37936000
 N  -39.44740700   55.51303800    8.51467500
 N  -37.51748400   56.40834300    7.78712300
 N  -38.36744800   58.52612000    7.08499100
 N  -39.67043600   56.75002500    8.00129700
 O  -38.06962600   53.13143900    9.32967900
 C  -37.30360900   57.51930300    2.33507800
 C  -37.16970000   58.42929200    4.94546400
 C  -38.14738500   55.34665000    8.36253800
 C  -37.42440600   54.16649600    8.74737600
 C  -38.49456100   57.27431800    7.57176100
19
-53.77752313918
Cl  -37.54570700   59.54097500    0.24916200
 C  -43.87418800   53.69028700    5.98053000
 C  -44.34462900   54.96809300    6.01527500
 C  -42.46680800   53.79534900    5.94283000
 C  -36.97932300   59.58593900    2.89632100
 C  -37.29790500   57.41321700    1.90425300
 C  -36.75872800   58.98307000    4.12230800
 C  -37.06766500   56.82509500    3.13472400
 C  -36.56349900   56.95147000    5.60160600
 N  -40.77033500   57.12355300    5.97480200
 N  -39.74127700   55.12613700    5.87717400
 N  -37.49120700   55.87807000    5.90181400
 N  -39.42420100   57.29323600    5.94390100
 O  -43.33215500   55.85181300    6.00185000
 C  -37.25226400   58.79267400    1.79567500
 C  -36.79975000   57.60088100    4.25637000
 C  -40.91654500   55.81260600    5.93721300
 C  -42.18508600   55.13812400    5.95757500
 C  -38.82299400   56.08045000    5.88268700
19
-53.77751218264
Cl  -38.75924300   59.94213800    0.42999100
 C  -38.46829800   49.82476400    3.88895400
 C  -37.44036200   49.94789600    3.00382800
 C  -38.57412900   51.07419800    4.53773300
 C  -37.17622800   59.71716400    2.61631100
 C  -39.04448000   58.20219700    2.48368300
 C  -36.81058500   59.14567400    3.82090700
 C  -38.66965500   57.64402300    3.69399700
 C  -37.12390400   57.51680600    5.70136500
 N  -36.26465700   53.88953400    3.70352700
 N  -37.94092300   53.96887800    5.20054900
 N  -37.62872800   56.18990900    5.97494300
 N  -36.31674800   55.11681900    4.28046000
 O  -36.90533800   51.17944300    3.05949700
 C  -38.29349500   59.23619200    1.95429800
 C  -37.55006700   58.10505700    4.37300500
 C  -37.25170100   53.23350000    4.28373500
 C  -37.59592300   51.86865700    3.99505000
 C  -37.33207400   55.14503400    5.17725100
19
-53.77749601238
Cl  -35.52834600   52.92362800    0.81809100
 C  -29.33566000   59.82804800    5.52800100
 C  -28.94873000   58.58180400    5.91835800
 C  -30.73782600   59.76927000    5.37433400
 C  -35.69243400   55.40745100    1.88168500
 C  -36.37355200   53.58554100    3.30387800
 C  -35.98067700   56.29993900    2.89835900
 C  -36.64929500   54.48996000    4.31426400
 C  -36.76544000   56.83121700    5.23648700
 N  -32.62442700   56.61406600    6.03889800
 N  -33.52515000   58.56143100    5.36395000
 N  -35.80809800   57.91351900    5.34823100
 N  -33.97012100   56.48815500    5.91702100
 O  -30.00788500   57.76038500    6.01672600
 C  -35.89209200   54.05411500    2.09387200
 C  -36.45801500   55.85306300    4.12460200
 C  -32.40053200   57.87026800    5.70180100
 C  -31.10113300   58.48309000    5.68508500
 C  -34.49339600   57.66946200    5.50864900
19
-53.77748299896
Cl  -34.86125900   63.92627900    4.12990500
 C  -42.33203200   59.92602700   10.52905200
 C  -42.78700400   59.72888400    9.26035400
 C  -40.92879100   59.78702100   10.46459500
 C  -35.38738600   62.54866500    6.39988800
 C  -34.43351900   61.29020600    4.58051300
 C  -35.41465800   61.39984000    7.17168800
 C  -34.47331000   60.14951300    5.36106000
 C  -34.98318500   58.92396100    7.49175800
 N  -39.20359700   59.02223000    7.23993800
 N  -38.19704600   59.31397500    9.22962500
 N  -35.95546600   58.91469900    8.56276000
 N  -37.86100500   58.87488500    7.10941400
 O  -41.76860000   59.48007600    8.41960700
 C  -34.89580100   62.48396100    5.10836000
 C  -34.96268500   60.18984700    6.66210700
 C  -39.36230700   59.28187900    8.52425100
 C  -40.63309700   59.51512200    9.15236500
 C  -37.27328600   59.05482900    8.31700400
19
-53.77746982728
Cl  -37.63595900   60.00226700    0.00050500
 C  -38.62477200   64.17127000    9.51489800
 C  -39.86201700   64.10636700    8.94889300
 C  -37.92499200   63.03664300    9.05001800
 C  -36.48961400   59.76680800    2.44146400
 C  -38.24216800   58.19606800    1.92433500
 C  -36.34084400   59.18107900    3.68560600
 C  -38.08662800   57.62559000    3.17546800
 C  -36.97648800   57.47539700    5.43202400
 N  -39.54098700   60.55781900    6.77003600
 N  -37.41721400   60.47790200    7.50587300
 N  -36.76414600   58.43089500    6.50088500
 N  -38.92031300   59.45283000    6.28459200
 O  -39.97614100   63.01672800    8.17052000
 C  -37.44168800   59.26770000    1.56913800
 C  -37.13752400   58.10846400    4.06788400
 C  -38.60743900   61.14114900    7.49755600
 C  -38.79487000   62.36266700    8.23044500
 C  -37.64379500   59.42287200    6.73804300
19
-53.77731587994
Cl  -30.97909900   60.90673400    7.50689800
 C  -36.12563900   52.71478700    9.87475000
 C  -34.76395800   52.75613700    9.85841000
 C  -36.54800900   53.33824700    8.68081100
 C  -31.03799800   59.37731800    5.27478100
 C  -31.68991400   58.30103500    7.33266200
 C  -31.26085200   58.19201400    4.59537400
 C  -31.90367300   57.12196600    6.64108400
 C  -31.98571000   55.77886100    4.52136400
 N  -36.23753400   54.81756100    6.03012600
 N  -34.00489600   54.64466800    6.22941500
 N  -33.39463500   55.67638700    4.16549700
 N  -35.62665500   55.39367900    4.96283300
 O  -34.31754400   53.35803700    8.74400300
 C  -31.25678800   59.41947600    6.64056200
 C  -31.69048200   57.05544000    5.26888300
 C  -35.22841200   54.38666800    6.76534400
 C  -35.40368400   53.71381700    8.02305400
 C  -34.28154300   55.27513400    5.10000300
19
-53.77731012462
Cl  -39.25252300   58.22782800   12.38102800
 C  -30.63017300   57.27728400    7.56127000
 C  -30.80928200   58.03018800    8.68245400
 C  -31.71376700   57.58347400    6.70994500
 C  -37.03901900   59.10790400   11.09614100
 C  -39.05420600   60.39222800   10.76818100
 C  -36.35439600   59.98284900   10.27149100
 C  -38.35745800   61.25636400    9.94114400
 C  -36.25777100   61.97366800    8.74464600
 N  -34.34561700   58.90037000    5.88521000
 N  -34.27722000   60.13202500    7.76462100
 N  -36.23451200   61.44420100    7.38793300
 N  -35.41838700   59.73143400    5.93917300
 O  -31.92127300   58.77660800    8.58406400
 C  -38.38543200   59.32296200   11.33777600
 C  -37.00505800   61.06394500    9.68790200
 C  -33.69180900   59.17074700    7.00051100
 C  -32.47535200   58.50665100    7.38139100
 C  -35.35663900   60.46759500    7.07761100
19
-53.77730876809
Cl  -29.09077200   62.33859900    8.98537700
 C  -38.88400800   62.28606800   10.36211800
 C  -38.23846200   63.24111100    9.63589700
 C  -38.37010900   61.04794400    9.92019400
 C  -31.68208700   62.38315300    8.20532100
 C  -30.14084700   61.23325100    6.74915000
 C  -32.71712400   62.08074700    7.33850800
 C  -31.18732800   60.93357700    5.89394100
 C  -33.63012200   60.98319300    5.27317600
 N  -36.59253800   59.16736400    8.30771100
 N  -35.76082400   60.94149300    7.20582800
 N  -34.30193800   59.77104000    5.72226900
 N  -35.66949300   58.76212400    7.39819100
 O  -37.36660100   62.68289100    8.78053500
 C  -30.40070200   61.95592200    7.90030300
 C  -32.48062700   61.35494900    6.17655000
 C  -36.61150900   60.47996100    8.16183400
 C  -37.44543000   61.34468900    8.95054400
 C  -35.18188800   59.84601100    6.74286900
19
-53.77729799732
Cl  -42.54156400   51.50370200    5.26073100
 C  -33.26770700   52.45554700    8.67510700
 C  -33.63860400   51.52869700    7.74802900
 C  -33.84884900   53.67356900    8.26132700
 C  -41.21181000   52.96431500    3.41048900
 C  -39.86286700   51.83577400    5.06122600
 C  -40.06152200   53.47352300    2.83283100
 C  -38.72151900   52.34765700    4.46995000
 C  -37.55959200   53.77064200    2.75835100
 N  -35.54508500   55.52122300    6.52065700
 N  -35.88144500   53.81663300    5.09406800
 N  -37.16231800   54.98658300    3.45536200
 N  -36.31646700   55.92780400    5.47968100
 O  -34.40400100   52.08556300    6.79542200
 C  -41.09973000   52.14963200    4.52348200
 C  -38.80928500   53.16974200    3.35222500
 C  -35.31168700   54.24938400    6.25116300
 C  -34.53375700   53.39444200    7.10536700
 C  -36.50479200   54.88686300    4.62959000
19
-53.77699658194
Cl  -37.10434600   52.25513600   10.72313900
 C  -29.10141800   56.02654800    5.17354000
 C  -29.08706700   57.11195900    5.99679600
 C  -30.45330200   55.63348800    5.07248100
 C  -37.97325400   54.07133500    8.91160900
 C  -35.92630000   54.60168200   10.06594500
 C  -37.87205300   55.25712700    8.20743800
 C  -35.84234300   55.78853300    9.35859800
 C  -36.73668000   57.42419700    7.64346900
 N  -33.44646500   55.74945100    5.58022700
 N  -33.13821200   57.53196600    6.91600500
 N  -35.40236400   57.95905300    7.47898000
 N  -34.63730800   56.17436600    6.07367700
 O  -30.32872200   57.41536300    6.40937800
 C  -36.99353000   53.75169100    9.83640500
 C  -36.80914100   56.12774800    8.42130100
 C  -32.57632900   56.59184000    6.10788200
 C  -31.16473000   56.51536400    5.84703200
 C  -34.43062500   57.24703300    6.87507700
19
-53.77699040678
Cl  -38.96250300   59.82312500   12.31846700
 C  -43.14784600   52.70713200    6.20611100
 C  -43.53982300   53.69708200    5.35612200
 C  -41.92062400   53.13274700    6.75838200
 C  -37.29085000   59.06652300   10.32698200
 C  -39.53656400   59.65136300    9.67894100
 C  -36.98973700   58.79620400    9.00393600
 C  -39.21811400   59.38459700    8.35935800
 C  -37.59704900   58.65660500    6.56503300
 N  -39.55565200   54.97294700    7.23130400
 N  -40.40652000   56.43430800    5.74844000
 N  -38.67492300   58.05522000    5.80639800
 N  -38.73380100   56.04616000    7.10934100
 O  -42.64551800   54.69918800    5.34458800
 C  -38.56748600   59.48986700   10.65393900
 C  -37.94558400   58.95191300    8.00724200
 C  -40.54305300   55.24536000    6.39698400
 C  -41.65647600   54.35802800    6.19909700
 C  -39.26333900   56.91396300    6.21390600
19
-53.77698762918
Cl  -39.88128300   57.57878300    0.42518300
 C  -29.94976800   53.84479000    3.61628100
 C  -30.70486700   52.91196600    2.97214800
 C  -30.86188300   54.77649900    4.15766300
 C  -37.87614500   58.25127300    2.11643200
 C  -39.49720000   56.67222100    2.94676900
 C  -37.19934500   58.17938000    3.32012900
 C  -38.80517600   56.60476800    4.14388200
 C  -36.90376600   57.28883700    5.65352400
 N  -34.54560900   54.38582100    3.67621300
 N  -33.53831700   56.04152500    4.81943400
 N  -35.46896600   57.26318100    5.45314900
 N  -35.47564600   55.23580300    4.18303800
 O  -32.01346600   53.20001600    3.07622100
 C  -39.02292700   57.49490200    1.94000100
 C  -37.65315900   57.35519800    4.34349800
 C  -33.40190300   54.90266400    4.08379300
 C  -32.11163100   54.33784700    3.79941600
 C  -34.84930100   56.22989800    4.85899000
19
-53.77698465419
Cl  -39.22579200   57.28459200    2.23709900
 C  -34.40561000   62.63456100   10.68028200
 C  -35.70631800   62.29787600   10.90389300
 C  -33.93200600   61.72948900    9.70580800
 C  -37.69265400   55.93445600    4.01337900
 C  -36.76056400   57.97111000    3.12256500
 C  -36.55149000   55.75637900    4.77660900
 C  -35.62341800   57.77642100    3.88495900
 C  -34.25840800   56.47041200    5.54584400
 N  -36.14882500   59.07673900    8.28993700
 N  -33.99786600   59.42597900    7.72922300
 N  -33.77159000   57.71753400    6.10055400
 N  -35.75612900   58.16967800    7.35882600
 O  -36.06889000   61.25372100   10.13941600
 C  -37.78830500   57.04545900    3.19366500
 C  -35.50771500   56.67171400    4.72070700
 C  -35.06618300   59.80599000    8.48490400
 C  -34.98749400   60.90508300    9.40701000
 C  -34.46255500   58.40265000    7.02748200
19
-53.77698139049
Cl  -38.22405400   54.47919700   12.00544400
 C  -39.72818700   64.27520800    8.58311900
 C  -40.87632000   63.84782500    7.98712400
 C  -38.83421900   63.18411400    8.53129700
 C  -39.46861300   55.79931600    9.99675300
 C  -37.34429300   54.79572100    9.46362300
 C  -39.56731900   56.26499600    8.69729700
 C  -37.45365100   55.27411900    8.17053300
 C  -38.66040600   56.51185200    6.34730100
 N  -37.88680100   60.37248900    7.89027800
 N  -39.86963400   59.93593300    6.92235500
 N  -39.43247000   57.72468900    6.18535100
 N  -37.89991900   59.10517700    7.40348700
 O  -40.75512900   62.57583700    7.57310700
 C  -38.35540800   55.06680900   10.36966400
 C  -38.56242800   56.01230600    7.77246500
 C  -39.08466800   60.83395900    7.57810900
 C  -39.51041200   62.16791600    7.90366000
 C  -39.10088700   58.86170900    6.82575500
19
-53.77697962579
Cl  -32.86494100   54.17388400    5.68393900
 C  -36.96073400   61.13354500   12.19923600
 C  -36.30441600   62.12257300   11.53054100
 C  -37.28614600   60.15968200   11.23078000
 C  -33.44617500   56.81719100    5.64186000
 C  -35.09023100   55.34359000    4.67732900
 C  -34.25125400   57.90154000    5.34106400
 C  -35.88780800   56.43686300    4.39045000
 C  -36.36364800   58.90703300    4.38519700
 N  -37.43041500   58.89350800    8.47591900
 N  -36.31123200   60.64736500    7.62189700
 N  -36.29534300   59.99100100    5.34276200
 N  -37.25759400   58.73108600    7.13947700
 O  -36.20178000   61.82935100   10.22379800
 C  -33.87344100   55.54436000    5.30611800
 C  -35.47983400   57.72474400    4.71714800
 C  -36.85088000   60.05495800    8.72202300
 C  -36.80006200   60.63263300   10.03748100
 C  -36.58176000   59.79574700    6.64439200
19
-53.77695379336
Cl  -31.75703500   57.31327900    7.52245000
 C  -41.53960900   59.69620400   11.41476200
 C  -41.73760900   58.34854400   11.44204200
 C  -40.70351800   59.94362100   10.30487700
 C  -34.37094200   56.64858700    7.74753000
 C  -33.59956700   57.22198200    5.53877500
 C  -35.64198900   56.43346900    7.24085400
 C  -34.87376100   57.00785100    5.04846900
 C  -37.28393500   56.37948600    5.30179000
 N  -39.04235900   59.28035700    7.85099700
 N  -39.50113400   57.09865700    8.14352300
 N  -38.35360500   56.22728700    6.26075100
 N  -38.44099600   58.54323800    6.88270900
 O  -41.08544200   57.74902800   10.43246500
 C  -33.35889000   57.04098000    6.89092000
 C  -35.90825700   56.61270300    5.89096700
 C  -39.66832900   58.37594400    8.58275000
 C  -40.45359500   58.71946700    9.73664900
 C  -38.72910000   57.23353700    7.07559300
19
-53.77694363403
Cl  -33.84844500   55.32994500   13.35160300
 C  -31.06888800   62.85323400    6.21170900
 C  -30.52625600   61.82287800    5.50460800
 C  -32.20365400   62.32282500    6.86224700
 C  -33.37018500   55.95792800   10.76291500
 C  -35.64257700   55.38765300   11.32274400
 C  -33.75018300   56.15221100    9.44524900
 C  -36.00778800   55.58996300   10.00529600
 C  -35.51773800   56.17003600    7.61945200
 N  -34.23553000   60.21134700    7.66858100
 N  -33.14405800   58.70064000    6.41066100
 N  -34.56925700   56.83776400    6.75792000
 N  -34.86002300   59.00810200    7.73769500
 O  -31.24245900   60.69899100    5.67169000
 C  -34.32079500   55.57621200   11.69179500
 C  -35.06906800   55.97394800    9.05266800
 C  -33.21463300   59.98273100    6.86206600
 C  -32.26673500   61.00067800    6.49934500
 C  -34.18839900   58.11257900    6.97411700
19
-53.77693853243
Cl  -32.23763500   54.24018100    8.08043900
 C  -41.73737700   56.16012700   11.25575300
 C  -42.17695700   55.22063300   10.37242700
 C  -40.63000600   56.78300300   10.64110700
 C  -34.54299700   53.96713700    6.68824500
 C  -33.59960300   56.18288200    6.77670900
 C  -35.58721100   54.44998100    5.92102300
 C  -34.65501600   56.65211200    6.01397500
 C  -36.81933400   56.31263800    4.76053800
 N  -38.56553700   57.31960500    8.48024300
 N  -39.49642400   55.71630200    7.20735600
 N  -38.11296800   55.92464600    5.29223700
 N  -37.90154600   57.21507300    7.30132500
 O  -41.42257200   55.21929900    9.26116500
 C  -33.55562600   54.84094800    7.11129300
 C  -35.65768300   55.79541200    5.57835800
 C  -39.51477200   56.40611500    8.38050800
 C  -40.47758700   56.17124000    9.42189100
 C  -38.47595900   56.24553800    6.54972700
19
-53.77675717981
Cl  -36.58325900   52.62319600   12.91166900
 C  -32.85158400   52.28852900    2.92951700
 C  -33.47679100   51.23941200    3.53349000
 C  -33.57885700   53.44006900    3.30034200
 C  -38.61715700   52.67887300   11.12540200
 C  -36.38530500   52.74086600   10.21543600
 C  -39.13176100   52.72818000    9.84093200
 C  -36.91473500   52.78284300    8.93860700
 C  -38.85146400   52.84370000    7.33795600
 N  -35.78935700   55.04211200    4.64923600
 N  -36.60576700   53.13776600    5.52375300
 N  -38.49875700   54.07253100    6.64731600
 N  -36.88314500   55.30802600    5.40864600
 O  -34.53947500   51.65842400    4.23943900
 C  -37.24463700   52.68724400   11.30012700
 C  -38.29022500   52.77469400    8.73677200
 C  -35.65817700   53.73171700    4.74804900
 C  -34.60675800   53.00007400    4.09599800
 C  -37.36342600   54.14703700    5.92305900
19
-53.77662182674
Cl  -41.53643200   63.10569700    4.61448800
 C  -38.44824900   54.37912200   10.50401100
 C  -39.40267300   55.25116500   10.93396200
 C  -37.45702200   55.16533400    9.87826600
 C  -40.14307600   61.42454200    6.21330600
 C  -40.28570900   63.71996100    6.93575000
 C  -39.38951700   61.12803100    7.33429700
 C  -39.52565700   63.40781400    8.04987600
 C  -38.23759200   61.77456500    9.47460300
 N  -36.12893600   57.70111200    8.85617600
 N  -37.81794900   58.91238600    9.71589000
 N  -37.00774800   61.08098500    9.14075400
 N  -35.92713500   59.02272600    8.61298400
 O  -39.07237400   56.51438200   10.61980900
 C  -40.58471300   62.72318700    6.02380400
 C  -39.07054200   62.11296900    8.26215000
 C  -37.27342100   57.68157600    9.51543400
 C  -37.88601800   56.46544700    9.97543000
 C  -36.95328100   59.73584800    9.14365000
19
-53.77650101667
Cl  -33.32828700   57.83241900    9.71436200
 C  -42.90095100   62.68445800    8.17926100
 C  -42.57570100   63.18017100    6.95269900
 C  -42.06019500   61.56906000    8.38278800
 C  -35.10519300   56.70125700    8.01361300
 C  -34.58377900   59.02339700    7.63189600
 C  -35.97477500   56.72880700    6.93692200
 C  -35.44964900   59.03381100    6.55361500
 C  -37.09393400   57.91153800    5.01279000
 N  -39.89139900   59.54709100    7.73727900
 N  -39.57258200   60.54046300    5.74364200
 N  -37.83455400   59.15261700    4.92646700
 N  -38.92313400   58.89671600    7.04102200
 O  -41.59811200   62.45302600    6.38712700
 C  -34.41794600   57.85337200    8.35397800
 C  -36.15537700   57.89083800    6.19689900
 C  -40.25385100   60.52125900    6.92186000
 C  -41.28116400   61.46948800    7.25722000
 C  -38.74052300   59.51454800    5.84854800
19
-53.77649086566
Cl  -39.37245400   55.79951000    8.51289200
 C  -28.98420400   56.06696800    5.55572700
 C  -29.23097700   56.12493900    4.21717300
 C  -30.14918300   56.55358100    6.18681200
 C  -38.09039400   56.23994700    6.16892100
 C  -38.28960200   58.12742900    7.65500000
 C  -37.41663800   57.03494100    5.25991300
 C  -37.60721900   58.90937400    6.73875000
 C  -36.42938700   59.23090700    4.53190000
 N  -32.95465000   57.68749600    6.38655400
 N  -33.10962900   57.67982600    4.14180900
 N  -35.31478700   58.52463300    3.93357000
 N  -34.16358100   58.17096900    6.00038800
 O  -30.46019700   56.61101100    3.97829300
 C  -38.52277700   56.79512200    7.36181600
 C  -37.16534200   58.37409200    5.53520400
 C  -32.35565300   57.40934100    5.24231600
 C  -31.02317200   56.87321700    5.17792900
 C  -34.24050400   58.15043700    4.64740700
19
-53.77648980856
Cl  -34.26059900   58.27997400    9.25939400
 C  -42.88946000   52.23302100    6.59958000
 C  -42.43972300   51.92319100    5.35148800
 C  -42.21952200   53.41872300    6.97057900
 C  -35.18833200   57.09349400    7.00910000
 C  -36.06986200   59.27997400    7.51145200
 C  -35.97093000   57.04674900    5.86976200
 C  -36.85373500   59.21596000    6.37237400
 C  -37.65676000   58.04515000    4.28988500
 N  -40.32422600   55.77392000    6.66707000
 N  -39.76414500   55.04100900    4.61481600
 N  -38.18689400   56.71799900    4.05274600
 N  -39.41961300   56.61462700    6.10164300
 O  -41.54398900   52.82984100    4.92752800
 C  -35.24424200   58.21337100    7.82186500
 C  -36.81263600   58.10303600    5.54149300
 C  -40.50407600   54.84896800    5.74100200
 C  -41.40736800   53.74372000    5.91295600
 C  -39.08844900   56.15137000    4.87187100
19
-53.77647719004
Cl  -34.20816200   53.68809900    7.52573000
 C  -33.46957200   64.53599100    8.13628300
 C  -34.76142100   64.76353500    7.76836200
 C  -33.14708200   63.25174200    7.64749100
 C  -34.07245900   55.16466300    5.26079700
 C  -35.80627200   55.75909700    6.82639700
 C  -34.49205400   56.18383300    4.42303500
 C  -36.21932500   56.76845300    5.97618900
 C  -36.03145600   58.09486600    3.84609300
 N  -33.59767400   60.60123000    6.23448300
 N  -35.69586600   61.24015500    5.73213300
 N  -36.39539300   59.29343500    4.57462600
 N  -34.22290400   59.63057900    5.51927000
 O  -35.25696600   63.71540700    7.09014500
 C  -34.73394100   54.96302500    6.45959100
 C  -35.56684100   56.99324200    4.76964700
 C  -34.51469600   61.54705400    6.33508500
 C  -34.27471000   62.79098700    7.01496700
 C  -35.48608900   60.03000500    5.23487500
19
-53.7753207862
Cl  -37.29451600   62.12602600    1.28046100
 C  -30.33284100   54.38467900    9.11807900
 C  -31.24810500   53.89556800   10.00029100
 C  -31.06501500   55.14277400    8.17871700
 C  -36.29109600   61.04100500    3.54957300
 C  -37.70590200   59.61863500    2.21341700
 C  -36.12800800   60.01180800    4.45876400
 C  -37.52856500   58.59531400    3.12882500
 C  -36.56004400   57.67390100    5.26202200
 N  -34.77606100   55.47922900    8.43622300
 N  -33.48290600   56.40389300    6.84502800
 N  -35.16257800   57.55705900    5.63559900
 N  -35.54189900   56.18829000    7.56657000
 O  -32.48893900   54.29585800    9.67434000
 C  -37.08191400   60.83436700    2.43160400
 C  -36.74177900   58.78065900    4.25746200
 C  -33.55252100   55.63524000    7.96767500
 C  -32.37940500   55.05710100    8.56272100
 C  -34.74455100   56.74062200    6.61873700
19
-53.77526238577
Cl  -39.35626300   59.60024000    0.62482700
 C  -35.59815500   59.50072100   13.09697700
 C  -34.47580100   58.72901000   13.10562100
 C  -36.08930600   59.45746000   11.77409000
 C  -37.71939600   59.84395800    2.76816600
 C  -38.55549400   57.63181300    2.30111200
 C  -37.02606400   59.34424400    3.85535300
 C  -37.86075200   57.14651200    3.39586200
 C  -36.32532900   57.46725300    5.36521800
 N  -34.33531900   57.49788500    9.12126500
 N  -36.22356400   58.68747800    8.84137100
 N  -36.54667200   58.31568200    6.52277500
 N  -34.75734900   57.40668800    7.83332300
 O  -34.23934000   58.21407700   11.88703700
 C  -38.47979200   58.97992100    1.99799400
 C  -37.09075500   57.99409600    4.18074400
 C  -35.24102000   58.27185200    9.68856800
 C  -35.22288900   58.65753300   11.07270400
 C  -35.89254400   58.13353900    7.68377100
19
-53.77495582697
Cl  -37.54608100   60.50601800    0.46456400
 C  -40.14291500   57.58207400   12.78747000
 C  -39.28543500   56.57753200   13.12055900
 C  -39.88520700   57.87930100   11.43163000
 C  -36.79072500   60.25618500    3.05155000
 C  -37.58384800   58.25460200    1.96664000
 C  -36.58663200   59.53454500    4.21385400
 C  -37.37711200   57.54631700    3.13783800
 C  -36.67036800   57.41718000    5.55224500
 N  -37.27485000   56.02616300    9.50691100
 N  -38.56469100   57.68636400    8.70536700
 N  -37.75723800   57.71628000    6.47402700
 N  -36.96887000   56.26773700    8.20553600
 O  -38.51922800   56.23430700   12.07116500
 C  -37.28882700   59.60659200    1.93462100
 C  -36.87572000   58.17568300    4.26919400
 C  -38.23274000   56.89639200    9.76478100
 C  -38.88380400   57.02755600   11.03906400
 C  -37.75980500   57.26649700    7.74003500
19
-53.77483115704
Cl  -43.30405800   55.61527600    5.99089100
 C  -30.73537200   56.54334400   10.68295700
 C  -31.68251200   55.75560600   11.26471700
 C  -31.32632200   57.05899900    9.50946100
 C  -40.82862400   55.40158400    4.91672100
 C  -40.99276700   56.59736300    7.00325800
 C  -39.46170800   55.62048400    4.90784900
 C  -39.62711800   56.81375900    6.97805700
 C  -37.36449800   56.57858300    5.91677600
 N  -33.49026700   57.48435300    7.42124100
 N  -34.86941000   56.15206900    8.59662700
 N  -36.79286800   56.31482100    7.22436000
 N  -34.69097000   57.38492100    6.79303000
 O  -32.81124800   55.74832500   10.53681500
 C  -41.58306500   55.89151100    5.96826000
 C  -38.84880500   56.32706700    5.93384800
 C  -33.64192200   56.73073200    8.49561400
 C  -32.59711700   56.54230800    9.46501700
 C  -35.50887300   56.58312400    7.51894300
19
-53.77479620743
Cl  -33.61152900   52.58615500    2.30364200
 C  -36.80581200   59.61663600   13.30012400
 C  -35.57878800   59.05277900   13.11955500
 C  -37.50669700   59.41673700   12.09133200
 C  -34.86279000   53.43014600    4.55155600
 C  -34.62894200   55.04877100    2.78062800
 C  -35.51105900   54.37807500    5.32196200
 C  -35.27434400   55.98909400    3.56540400
 C  -36.43701800   56.68090300    5.68910900
 N  -37.95789500   58.46002400    9.24437100
 N  -35.87255900   57.61839200    9.20944400
 N  -35.89050900   56.68398000    7.03376300
 N  -37.70714200   57.88365800    8.03973100
 O  -35.47296400   58.52153500   11.89058800
 C  -34.42718000   53.77525300    3.28303400
 C  -35.72221400   55.66445200    4.83869000
 C  -36.83278500   58.27837400    9.91240100
 C  -36.64755000   58.74177000   11.26066500
 C  -36.44854900   57.37867500    8.04037900
