26
-73.48896090276
 N   10.53093900  -11.86059000   15.57103700
 C    7.84373200  -10.71390900   14.55113400
 N    6.93310600   -9.87299500   14.10596600
 C   12.84833900   -8.15907800   15.61312800
 C   12.36148800  -10.80231600   15.92376800
 C   13.65983500  -10.33697900   16.22711200
 C    8.97021200   -4.90526400   14.77076300
 C   13.90146800   -9.00934500   16.06907700
 N   11.43148800   -9.87702800   15.47238800
 C   10.14960100   -6.58361600   18.46523000
 C   10.35198400   -4.14577000   11.48710200
 O    9.44422100   -4.28993700   12.56433300
 C    9.89524000   -4.82596200   13.72971500
 C   11.18524300   -5.30186900   13.94031500
 C    9.31100200   -5.45224100   15.99147200
 C   10.59695300   -5.93720300   16.21401000
 O   11.04057200   -6.50604100   17.36884200
 C   11.51514700   -5.85022600   15.16623000
 S   13.17148800   -6.45597300   15.44052600
 N   11.79621400  -11.99102900   15.97558800
 N   11.65166600   -8.57544200   15.30715000
 C   10.29245800  -10.59871100   15.26348000
 C    9.06272500  -10.04503500   14.78599300
 C    8.79751900   -8.72504500   14.43991100
 N    7.51989700   -8.67870600   14.04155000
 C    6.78231600   -7.52240000   13.61534900
26
-73.48894970296
 N   13.24054800   -3.64579200    9.89286900
 C   12.82550300   -1.49197300   12.07129600
 N   12.30026000   -0.80232200   13.06269200
 C    9.71061500   -6.08843100   10.69870700
 C   11.99176000   -5.33217900    9.45489700
 C   11.34079200   -6.49116500    8.97848800
 C    8.42135300   -3.89984700   15.13882900
 C   10.19422700   -6.86686000    9.60338900
 N   11.41069000   -4.65429800   10.51701600
 C   11.18259100   -7.05008800   14.57301400
 C    5.52433700   -2.40804600   13.51065000
 O    6.58356000   -2.64335600   14.42059100
 C    7.42690200   -3.68396000   14.18469400
 C    7.37252000   -4.51589900   13.07095900
 C    9.34992200   -4.91025200   14.99016700
 C    9.31155100   -5.74516600   13.87694900
 O   10.18034200   -6.76069100   13.61695200
 C    8.30918200   -5.52333700   12.93120500
 S    8.25057500   -6.59437100   11.50406800
 N   13.09407100   -4.70657700    9.09610700
 N   10.28863300   -5.00602200   11.13903700
 C   12.23939200   -3.59618300   10.75252500
 C   12.02271400   -2.61040900   11.76630100
 C   10.96760400   -2.52671200   12.66761000
 N   11.18056200   -1.43428800   13.41211400
 C   10.37332400   -0.94707600   14.49554500
26
-73.48813729112
 N    6.92881800   -2.80889600   13.69604400
 C   10.40052500   -1.47054300   14.32658100
 N   11.47287800   -1.67642600   13.58754400
 C    7.46361200   -0.40813500   17.30495700
 C    6.14647700   -1.89199400   15.46682600
 C    5.40305300   -1.40148600   16.56257200
 C   12.60378800    0.15540800   17.19931200
 C    6.06818700   -0.65902300   17.48466700
 N    7.49621300   -1.57380500   15.40228700
 C   10.39068500   -3.19443000   18.52931100
 C   13.92937000    2.50799700   16.31809800
 O   12.58251800    2.55765400   16.75767000
 C   11.99094000    1.40164800   17.16197200
 C   10.65869000    1.50734300   17.56522500
 C   11.90657600   -0.96336600   17.62822300
 C   10.58198600   -0.87119500   18.03109100
 O    9.80886800   -1.90663300   18.46359900
 C    9.97418300    0.38855300   17.98376200
 S    8.28013800    0.54242300   18.51483400
 N    5.82693400   -2.63566800   14.42801100
 N    8.16045800   -0.83693200   16.29037300
 C    7.94181500   -2.17912800   14.26445700
 C    9.28731100   -2.13926700   13.77774200
 C    9.79180200   -2.76312500   12.64271500
 N   11.09263900   -2.45608200   12.57749100
 C   12.03527800   -2.86879900   11.57494400
26
-73.48813697454
 N    9.75627700   -2.05845700   10.84188900
 C    7.38585900   -3.36641000    9.32200800
 N    6.69011700   -4.20356400    8.58024300
 C   12.70835000   -5.22033400   10.23963700
 C   11.72661800   -2.85668700   11.12036500
 C   13.06583300   -3.16882300   11.44231000
 C    9.55406200   -8.80846500    8.28522100
 C   13.55540000   -4.35615400   10.99874100
 N   11.01497700   -3.77274900   10.36022800
 C   10.11278300   -7.74298200   12.34244100
 C    9.39027900   -9.52660200    5.54000400
 O   10.51174900   -8.81696200    6.03909400
 C   10.55677000   -8.52461200    7.36668700
 C   11.71378600   -7.88032700    7.81139200
 C    9.69754700   -8.45849300    9.61991600
 C   10.84474700   -7.82471500   10.07453400
 O   11.08513800   -7.44303300   11.35976500
 C   11.84696100   -7.53916600    9.13833200
 S   13.34408800   -6.75262300    9.70633600
 N   10.94800900   -1.83109800   11.39910800
 N   11.47980200   -4.93512400    9.91117600
 C    9.77687300   -3.21890700   10.21265400
 C    8.70720900   -3.83080300    9.48578300
 C    8.73911700   -5.02356000    8.77317500
 N    7.51669400   -5.19609400    8.25435500
 C    7.06491500   -6.29744700    7.45156400
26
-73.48812369485
 N    8.34860000  -10.69884500   11.51977800
 C    5.74126100  -13.29408000   12.35948900
 N    5.14463900  -13.46464500   13.52284800
 C    7.17950300  -13.39331600    8.28742400
 C    8.52005300  -11.37853900    9.49578600
 C    8.80895600  -11.63066300    8.13687100
 C    3.28832300  -15.87036100   10.61982300
 C    8.13276900  -12.64160300    7.53302400
 N    7.57731200  -12.18389900   10.12031800
 C    3.17360300  -12.07560200    8.75505300
 C    3.53069200  -18.45224800   11.77917500
 O    4.43556300  -18.02076400   10.77691900
 C    4.28256000  -16.77179600   10.26111900
 C    5.21603400  -16.39334600    9.29437500
 C    3.22386400  -14.61681200   10.03117100
 C    4.14651900  -14.22874400    9.07038400
 O    4.17550100  -13.02257500    8.43716500
 C    5.14570300  -15.14414800    8.72031700
 S    6.33074500  -14.67829500    7.47345200
 N    8.97118200  -10.49144100   10.35810100
 N    6.91327400  -13.18524700    9.54633000
 C    7.50790100  -11.71062400   11.39739000
 C    6.66039800  -12.22733900   12.42839800
 C    6.56031900  -11.77685300   13.73943500
 N    5.64729100  -12.54546000   14.34468000
 C    5.20494300  -12.46062600   15.70889700
26
-73.48812315719
 N    7.21835200  -11.84718000   14.15631100
 C    5.18137700  -10.22407800   15.84459600
 N    4.29787400   -9.31227300   16.19521300
 C    7.13467900   -9.40067700   10.53905500
 C    7.86499300  -11.44807500   12.15160600
 C    8.43567200  -11.39737900   10.86083700
 C    4.49911200   -5.37227300   12.41063300
 C    8.06577600  -10.36914700   10.05347200
 N    6.95653000  -10.45813900   12.49567100
 C    8.62505300   -6.21105200   12.83907000
 C    1.74933200   -4.85290500   11.91506200
 O    2.47917000   -5.74664400   11.09129000
 C    3.80040800   -5.93662600   11.35091800
 C    4.48201200   -6.77705000   10.46732400
 C    5.84848400   -5.63945900   12.59092800
 C    6.53704900   -6.46807400   11.71689100
 O    7.85710500   -6.79194600   11.80270400
 C    5.82140500   -7.03370400   10.65372100
 S    6.69705800   -8.07350800    9.49824500
 N    8.00804400  -12.27367600   13.16821000
 N    6.57991500   -9.44701300   11.71757600
 C    6.57731000  -10.75890500   13.77136800
 C    5.63129700   -9.99703200   14.52746200
 C    4.93538300   -8.86476900   14.12124800
 N    4.15792700   -8.49989500   15.14891900
 C    3.26250900   -7.37864100   15.20079900
26
-73.48802175205
 N    2.69137000   -5.22931100   11.22898800
 C    4.12115000   -4.57461900    7.79985700
 N    4.72608300   -3.47366700    7.39953000
 C    2.26545600   -8.45983100    8.32200800
 C    2.02126600   -7.19246500   10.69745700
 C    1.47722900   -8.49108500   10.59382700
 C    4.18918500   -6.24229300    4.02514100
 C    1.59675400   -9.12220500    9.39782600
 N    2.64793800   -6.65709800    9.57972200
 C    0.42601700   -5.61786100    5.83365800
 C    6.84573300   -8.73266200    3.90548300
 O    6.09230900   -7.55713400    3.66883500
 C    4.89321100   -7.41605300    4.29381900
 C    4.33639200   -8.34628100    5.16371600
 C    2.95863000   -5.99872900    4.59915400
 C    2.38413000   -6.92625400    5.46481800
 O    1.17429700   -6.79342500    6.07745600
 C    3.10349200   -8.08964600    5.73793600
 S    2.38871500   -9.31802400    6.81179800
 N    2.06140300   -6.31570700   11.67888900
 N    2.79195100   -7.27065400    8.40592700
 C    3.05068300   -5.41420300    9.97108100
 C    3.73681800   -4.46271800    9.15144300
 C    4.16838700   -3.19473400    9.52323000
 N    4.74845700   -2.65174500    8.44661000
 C    5.34874400   -1.35045200    8.34514900
26
-73.48801951031
 N    8.61434900  -10.23134600   15.76836100
 C    8.16388100   -6.60515900   16.70727000
 N    7.05964500   -5.89471100   16.58830100
 C   12.11144400   -8.23124700   17.45225300
 C   10.66465500  -10.25069600   16.38600100
 C   12.00720600  -10.52208700   16.72814800
 C   10.12686800   -3.59423000   18.74420900
 C   12.72897700   -9.50720100   17.26862700
 N   10.18231300   -8.96741400   16.60758500
 C    9.58775100   -7.32093600   20.65149400
 C   12.44287900   -1.93197300   16.47532300
 O   11.34076800   -2.17853400   17.32982500
 C   11.22785000   -3.40320600   17.90928500
 C   12.11946300   -4.45373700   17.72691400
 C    9.91755200   -4.79601300   19.38817800
 C   10.80816000   -5.85403900   19.22286400
 O   10.70374200   -7.07562100   19.81770800
 C   11.89766400   -5.65696600   18.37440900
 S   13.08161300   -6.97024800   18.15997200
 N    9.70322900  -10.99393500   15.87910700
 N   10.88228600   -7.95570300   17.11850100
 C    8.88134800   -9.01174300   16.20064400
 C    7.95649300   -7.92059900   16.24498200
 C    6.62738600   -7.93169100   15.83802300
 N    6.14294500   -6.70489100   16.06326900
 C    4.81052800   -6.23498100   15.80295100
