66
-97.44480788288
 C    7.12770100    0.54145200   17.37741700
 C    7.39402600    0.41403400   18.73778600
 C    8.17319600   -0.65637400   19.17292800
 C    8.67859400   -1.57058900   18.26659200
 C    8.40669900   -1.43630200   16.91604600
 C    7.62771700   -0.37662600   16.46613400
 C    5.88064800    1.90626400   21.83194800
 C    5.88546400    3.26729500   21.53073300
 C    6.38038700    3.68357600   20.29642100
 C    6.86321100    2.75565800   19.39543900
 C    6.86452100    1.39401900   19.69670700
 C    6.35957400    0.98098500   20.92837600
 C    5.42984000    4.21763600   22.57641300
 N    5.05609400    5.42688800   22.15735800
 C    4.69039800    6.52074600   23.02849100
 C    3.22051800    6.88495100   22.81324400
 C    5.59044400    7.75320600   22.79591300
 C    5.67125700    8.16149000   21.33839700
 O    6.01043500    9.43805900   21.23156600
 C    7.01934300    7.60420500   23.37722900
 C    7.30412200   -0.24316700   15.00118100
 N    6.08465500   -1.03054500   14.66784800
 C    7.96946800    5.29528300   23.56996400
 C    8.67755500    4.20921600   23.06156500
 C    9.24334400    4.28670700   21.79144900
 C    9.09154400    5.44184600   21.04644800
 C    8.37818800    6.51391600   21.55488000
 C    7.79939500    6.44890000   22.81816100
 C    8.80451500    2.98225200   23.86877400
 N    9.95274500    2.34060000   23.88106200
 N    7.76666900    2.56398300   24.54564500
 O    5.47778700    7.44710500   20.37570200
 O    5.43332300    3.89895500   23.77323800
 C    6.15265000    9.97938500   19.91680900
 H    6.51726500    1.36416000   17.03770100
 H    8.40320400   -0.75937600   20.22175600
 H    9.28983000   -2.38947300   18.61411700
 H    8.81507100   -2.15001800   16.21718600
 H    5.47887800    1.58847000   22.78206100
 H    6.42010400    4.73137200   20.04043500
 H    7.26996800    3.09607100   18.45585800
 H    6.32614700   -0.06995100   21.17045500
 H    5.03358400    5.64708600   21.17070200
 H    4.83080100    6.16695100   24.05584900
 H    2.91642200    7.66531800   23.50446800
 H    3.06214800    7.23597100   21.79574800
 H    2.59354300    6.01326800   22.98124200
 H    5.13760900    8.59923200   23.32108500
 H    6.92098500    7.48677000   24.45682100
 H    7.55299000    8.53701900   23.18304500
 H    8.13715800   -0.61327300   14.40367500
 H    7.12748000    0.80281800   14.75194400
 H    5.86613100   -0.95317500   13.66758400
 H    6.22867100   -2.02082900   14.89806700
 H    7.55679900    5.24811400   24.56558100
 H    9.77100000    3.44515900   21.37273100
 H    9.53090100    5.50984700   20.06389200
 H    8.27593600    7.41410300   20.96721000
 H   10.07580500    1.50060600   24.42773000
 H   10.75400600    2.71927200   23.40144800
 H    7.81661100    1.73579100   25.12089700
 H    5.18238800   10.01005300   19.42010600
 H    6.54716800   10.98179200   20.04917000
 H    6.83469700    9.36530700   19.32739300
 H    5.28213900   -0.68820500   15.20942500
 H    6.85690500    3.02201900   24.43409800
