13
-41.4777185191
 C   35.60589000  -35.40384000   11.57783300
 C   35.16051300  -36.20162200   12.61734600
 C   33.79891800  -36.35496300   12.78538300
 S   33.22932600  -37.39403600   14.07393500
 F   33.18225700  -38.86425900   13.23895200
 O   31.86363500  -37.17022300   14.43547500
 O   34.19435500  -37.62371300   15.10408200
 C   32.86821100  -35.74972200   11.96784700
 C   33.32760000  -34.95085500   10.93237700
 C   34.69547300  -34.78051400   10.72409600
 C   35.19933900  -33.91365200    9.60324900
 C   35.68636600  -32.55544700   10.10916600
 N   34.54259300  -31.74770000   10.59515400
13
-41.47769689464
 C   35.74518500  -36.08678900   11.40382900
 C   35.13298200  -36.75679200   12.45160600
 C   33.85972000  -36.37223200   12.81473800
 S   33.06386300  -37.23527900   14.11326800
 F   32.30777100  -38.44957700   13.21065700
 O   31.97113700  -36.52308500   14.69973000
 O   33.96076100  -37.95740700   14.96179200
 C   33.17159200  -35.35654900   12.18198800
 C   33.79299500  -34.69775700   11.13541700
 C   35.07837100  -35.06200700   10.73390900
 C   35.74005900  -34.32842800    9.59995500
 C   36.24114300  -32.95024400   10.03276500
 N   37.37764300  -33.08834500   10.97437600
13
-41.47768782906
 C   35.40945500  -35.49147000   11.10468100
 C   34.96381700  -36.51896000   11.92121500
 C   33.72016400  -36.39491400   12.50355500
 S   33.16494700  -37.67180500   13.56460700
 F   33.78663800  -37.09912400   15.03022900
 O   33.84560700  -38.91555400   13.37585800
 O   31.75094800  -37.67637100   13.77823900
 C   32.90538200  -35.29751900   12.31033600
 C   33.36361900  -34.27714800   11.49504200
 C   34.61965900  -34.36185700   10.89433300
 C   35.09956000  -33.24592400   10.00767800
 C   34.42161800  -33.27684600    8.63763700
 N   34.86380500  -34.46683100    7.87260600
13
-41.47767687976
 C   35.73428100  -35.35805200   11.69850100
 C   35.22050500  -36.24406100   12.62940200
 C   33.86531500  -36.50569500   12.60341900
 S   33.20517500  -37.59318200   13.80597700
 F   32.87696300  -36.47622800   15.03311600
 O   34.17449500  -38.46385100   14.39553400
 O   31.91526100  -38.11194000   13.47021400
 C   33.00579000  -35.92733800   11.69373400
 C   33.53380600  -35.04477200   10.76438200
 C   34.89560400  -34.74631500   10.76651000
 C   35.47255700  -33.78931100    9.75998300
 C   36.23076400  -34.52038100    8.65175900
 N   35.28735900  -35.29274200    7.80884200
13
-41.47743266916
 C   35.77163000  -35.47117200   11.56327800
 C   35.20755400  -36.23906300   12.56696400
 C   33.83104700  -36.32198800   12.63008700
 S   33.11115800  -37.30530600   13.88706400
 F   32.98100700  -36.13550900   15.10582100
 O   34.00109800  -38.27284800   14.44947000
 O   31.75194500  -37.66860300   13.63093900
 C   32.99807400  -35.67442800   11.74258500
 C   33.57586400  -34.90642700   10.74364800
 C   34.96240100  -34.80611700   10.64158800
 C   35.59543200  -33.97880800    9.55667000
 C   36.16951300  -32.66961900   10.09804600
 N   35.07396200  -31.76368900   10.51861400
13
-41.47742597926
 C   35.82223000  -35.23398100   11.89518600
 C   35.25135600  -36.08578400   12.82461100
 C   33.90931900  -36.38406700   12.69971200
 S   33.17888100  -37.45161400   13.87961300
 F   33.47968700  -38.93673400   13.12166100
 O   31.75098000  -37.38253300   13.91780800
 O   33.90880900  -37.55045400   15.10506600
 C   33.11714500  -35.87327400   11.69343900
 C   33.70189000  -35.02276100   10.76811900
 C   35.05256400  -34.69145300   10.86607800
 C   35.69065900  -33.76864000    9.86459300
 C   36.58017700  -34.52674800    8.87951100
 N   35.75261800  -35.36810200    7.98261800
13
-41.4774219802
 C   35.76585200  -35.36895600   11.77294800
 C   35.21356500  -36.18115100   12.75122000
 C   33.84786600  -36.36978700   12.74578300
 S   33.13617600  -37.38168300   13.98451900
 F   33.18760500  -38.87131500   13.17876300
 O   31.73770800  -37.16005900   14.18346200
 O   33.98090600  -37.58997500   15.11943900
 C   33.01194300  -35.78921100   11.81309100
 C   33.57590000  -34.97895900   10.84323900
 C   34.95298800  -34.75646600   10.82046000
 C   35.54562500  -33.86805900    9.76147400
 C   35.59323000  -34.55790400    8.39780900
 N   36.58777000  -35.65718600    8.41112400
13
-41.47741332112
 C   35.70287900  -35.58284100   11.44274000
 C   35.19859300  -36.39141700   12.44942200
 C   33.83918900  -36.37423700   12.67891400
 S   33.19207000  -37.39979000   13.94183600
 F   33.26900300  -36.31172300   15.23835600
 O   34.07316600  -38.45328600   14.34044600
 O   31.79313400  -37.66669900   13.81504200
 C   32.96407500  -35.59002300   11.95461900
 C   33.48041000  -34.78839800   10.95153000
 C   34.84936100  -34.78415800   10.68312900
 C   35.38989800  -33.90540800    9.58888000
 C   35.46087800  -32.43981300   10.01900300
 N   36.51388700  -32.25535700   11.04594200
13
-41.47703610609
 C   35.51254100  -35.26468900   11.48801900
 C   35.03175500  -35.84023400   12.65281800
 C   33.72376100  -36.27587200   12.67249000
 S   33.11224800  -37.04332200   14.12124500
 F   33.44340000  -38.65689800   13.73504000
 O   31.68651600  -37.01305400   14.23309700
 O   33.90796200  -36.80662200   15.28584800
 C   32.88102200  -36.16641900   11.58487500
 C   33.37643400  -35.59621300   10.42509700
 C   34.69574100  -35.14337000   10.36450400
 C   35.25743200  -34.56686900    9.09255800
 C   34.38934200  -33.48688400    8.45317800
 N   34.28363000  -32.31529600    9.35602600
13
-41.47687476907
 C   35.61949400  -35.19542400   11.95319200
 C   35.03834100  -36.01353400   12.90753300
 C   33.72380400  -36.39071500   12.72863100
 S   32.98877700  -37.44418200   13.91714500
 F   33.38288600  -38.94332200   13.23550200
 O   31.55864500  -37.43633800   13.89698300
 O   33.66595800  -37.46438900   15.17686800
 C   32.96700200  -35.99200900   11.64647400
 C   33.56071500  -35.17495500   10.69953700
 C   34.88874600  -34.77717900   10.84310400
 C   35.51419200  -33.86581400    9.82585800
 C   35.23592900  -32.40685600   10.20332200
 N   35.82786500  -31.49738900    9.19544200
13
-41.47686411304
 C   35.54465100  -35.56891800   11.33028300
 C   35.13246100  -36.50455900   12.26401600
 C   33.80930800  -36.49616500   12.65372900
 S   33.28546600  -37.65713500   13.85382000
 F   33.59340900  -36.75963800   15.25688100
 O   34.15097800  -38.78795200   13.98716700
 O   31.86971400  -37.85653200   13.89227500
 C   32.88415200  -35.60196000   12.15666900
 C   33.30974600  -34.67215800   11.22310000
 C   34.64027600  -34.64508000   10.81007700
 C   35.08989800  -33.65060000    9.77794100
 C   34.94064500  -34.25607800    8.37803000
 N   35.38176500  -33.28234400    7.35308700
13
-41.47671682427
 C   35.80434100  -35.42423500   11.76097800
 C   35.23287100  -36.25710300   12.70809200
 C   33.85759900  -36.35816800   12.74136200
 S   33.12620900  -37.40265100   13.94027500
 F   33.07145100  -38.84486300   13.05339600
 O   31.74775800  -37.11960000   14.19602200
 O   33.98676700  -37.72135800   15.03726000
 C   33.03169000  -35.67279100   11.87496200
 C   33.61641300  -34.84330300   10.93300800
 C   35.00208000  -34.70849700   10.87441400
 C   35.62957600  -33.81742900    9.84065600
 C   35.89418700  -34.61227300    8.55755600
 N   36.52454400  -33.73897000    7.54084000
13
-41.47671506372
 C   35.78289700  -35.66833600   11.49510800
 C   35.24074500  -36.45829600   12.49462400
 C   33.87167500  -36.44709000   12.66323800
 S   33.18172600  -37.44289200   13.92632300
 F   33.21743500  -36.33163600   15.20388700
 O   34.04385500  -38.49150700   14.37666700
 O   31.78655900  -37.71108400   13.76084900
 C   33.02423700  -35.68558000   11.88599700
 C   33.57990400  -34.89969700   10.89033700
 C   34.95798600  -34.89022800   10.68502800
 C   35.55667200  -34.01890100    9.61770300
 C   35.91322500  -32.65076400   10.20824200
 N   36.52202100  -31.78993300    9.16817600
13
-41.47543957121
 C   35.66504100  -35.54356900   11.56378000
 C   35.17940700  -36.28969800   12.62010300
 C   33.81145700  -36.35445400   12.79702100
 S   33.18596500  -37.31068700   14.12025600
 F   33.05844800  -38.81116600   13.34257100
 O   31.83319300  -37.00584700   14.47179900
 O   34.13560400  -37.55904900   15.16079600
 C   32.92168400  -35.70690400   11.96827300
 C   33.42178700  -34.96007400   10.91252500
 C   34.79553700  -34.87262000   10.69856500
 C   35.40329400  -34.08013800    9.57631200
 C   34.40134400  -33.44217200    8.61847700
 N   35.13097900  -32.74636300    7.53152600
13
-41.47532443564
 C   35.56446100  -36.52072600   11.14545500
 C   34.86924500  -37.08277200   12.20378400
 C   33.78840900  -36.39471600   12.71322300
 S   32.89456700  -37.11710400   14.03369200
 F   34.04908900  -36.97600100   15.26216400
 O   32.72122000  -38.53187600   13.91062600
 O   31.80108200  -36.32189900   14.50027600
 C   33.36771800  -35.17993900   12.21217200
 C   34.06798000  -34.63265300   11.15131100
 C   35.16845000  -35.29746400   10.61079000
 C   35.91952800  -34.68682900    9.46139000
 C   36.74061400  -33.47890000    9.92949500
 N   37.10030100  -32.62290000    8.77524600
