27
-32.8177544171
 C   17.40949100    6.69721100   14.35650000
 C   17.74615500    5.21190800   14.41797600
 C   18.08265400    4.64774900   13.03954000
 C   18.42982500    3.16176600   13.09814000
 C   18.75921800    2.60060200   11.71637000
 C   19.15717400    1.11986100   11.76361900
 C   19.32973200    0.54609900   10.35932400
 N   20.39120600    0.95744200   12.50735100
 C   20.50861000    0.42084600   13.71137600
 O   21.55039700    0.33876600   14.34701400
 H   17.17274600    7.07674800   15.34740400
 H   18.25177100    7.26276500   13.96446000
 H   16.55206600    6.86663600   13.70919700
 H   16.89735500    4.66484100   14.83454000
 H   18.59631500    5.05928700   15.08714900
 H   18.92743800    5.20082900   12.62303500
 H   17.22943600    4.79430600   12.37363700
 H   17.58572200    2.61229800   13.52154800
 H   19.28305100    3.01787900   13.76628700
 H   19.57557600    3.17583400   11.27599500
 H   17.88850700    2.70508700   11.06860600
 H   18.38561700    0.55712500   12.29933200
 H   19.64882400   -0.49118900   10.41204000
 H   18.38820500    0.59330500    9.82133000
 H   20.07373400    1.11398300    9.80715700
 H   21.22821300    1.34588900   12.08984400
 H   19.56010600    0.02847600   14.11716500
27
-32.81731887513
 C   17.45628900    6.45222300   14.66700000
 C   18.59236400    5.79982100   13.88782600
 C   18.18721200    4.44008400   13.32253700
 C   19.32941500    3.78856200   12.54512000
 C   18.94370300    2.45495200   11.90306500
 C   18.76464300    1.31394800   12.91397100
 C   18.31017100    0.03249500   12.21901800
 N   20.00914800    1.06946600   13.61556700
 C   20.25051500    1.34415400   14.88735300
 O   21.32384800    1.18293700   15.45154200
 H   17.76631000    7.41800700   15.05826300
 H   16.59143300    6.60263900   14.02488200
 H   17.15730100    5.82397300   15.50325000
 H   19.45709900    5.67287600   14.54391000
 H   18.89379200    6.45654900   13.06871400
 H   17.32627400    4.56793800   12.66266900
 H   17.88109000    3.79623600   14.14921900
 H   20.18235800    3.64127700   13.21294400
 H   19.64697800    4.47455100   11.75704600
 H   19.71906700    2.16572600   11.19131100
 H   18.01114700    2.57717500   11.35177400
 H   18.02431000    1.60094700   13.66584600
 H   18.22177400   -0.77627900   12.93925100
 H   17.34364700    0.18797500   11.75015100
 H   19.02457100   -0.25752600   11.45311800
 H   20.78265300    0.71981300   13.06311800
 H   19.37494500    1.73865400   15.43160800
27
-32.81693776537
 C   16.73861100    5.82214800   14.50547400
 C   18.21197400    5.72139500   14.12747800
 C   18.39071100    5.18913500   12.70653700
 C   19.84618000    5.18226100   12.23679000
 C   20.71558500    4.18126400   12.99570000
 C   22.13568400    4.08982600   12.42144600
 C   23.02745100    3.20512800   13.28944900
 N   22.09998300    3.56120600   11.07205500
 C   22.32485500    4.24659200    9.96238000
 O   22.23798700    3.79750300    8.82795500
 H   16.62844500    6.19868200   15.51944600
 H   16.21576500    6.49604100   13.83022500
 H   16.26324000    4.84551800   14.44782400
 H   18.71501000    5.06230800   14.83610000
 H   18.67242300    6.70903600   14.20163600
 H   17.80969800    5.81475600   12.02464000
 H   17.98575200    4.17648700   12.64637100
 H   20.26390900    6.18534700   12.35025000
 H   19.86670600    4.93632600   11.17152000
 H   20.25077700    3.19445400   12.95689100
 H   20.79181900    4.47885000   14.04063400
 H   22.56326900    5.09585900   12.35887100
 H   24.01784700    3.12099900   12.85061600
 H   23.12248200    3.63409800   14.28199900
 H   22.59936900    2.21044300   13.38079700
 H   21.81604900    2.59458900   10.96897600
 H   22.61649500    5.29621600   10.13981100
27
-32.81693497577
 C   17.06839800    6.07772000   14.84338000
 C   18.26222900    5.94072900   13.90491100
 C   18.07627900    4.85058500   12.84817500
 C   17.00214800    5.19022500   11.81658500
 C   16.90710800    4.12082300   10.73030700
 C   15.80753000    4.42522000    9.70444800
 C   15.82891500    3.42316400    8.55284500
 N   14.50628500    4.39984200   10.34346100
 C   13.75645400    5.45552800   10.61743400
 O   12.69001400    5.42608000   11.21577100
 H   17.27759500    6.81543700   15.61445700
 H   16.17890800    6.39653200   14.30569300
 H   16.85497900    5.12727200   15.32759100
 H   19.14815500    5.70207700   14.49761100
 H   18.44457400    6.89633100   13.40828700
 H   17.81904800    3.91251900   13.34486300
 H   19.02623500    4.70219700   12.32964700
 H   17.23900100    6.15348000   11.35828400
 H   16.03389500    5.28775100   12.31141800
 H   16.70780100    3.15182900   11.19140300
 H   17.86043200    4.05252300   10.20553400
 H   15.95151000    5.43804400    9.31409700
 H   15.02178300    3.63181100    7.85604800
 H   16.77293600    3.48945100    8.02119700
 H   15.71374900    2.41047200    8.92971100
 H   14.17996100    3.50109100   10.67738000
 H   14.17475700    6.40634500   10.24410400
27
-32.81692892277
 C   17.73081700    6.19981900   14.71007000
 C   18.66444600    5.42128700   13.79015100
 C   17.88804500    4.67327200   12.70766700
 C   18.76530500    3.76759100   11.84185800
 C   19.72249700    4.54665400   10.94110700
 C   20.55934100    3.62346100   10.04674200
 C   21.40059000    4.42387200    9.05517600
 N   21.42836600    2.79541200   10.85995300
 C   21.30434000    1.49196800   11.05149900
 O   22.01884300    0.81625700   11.77894000
 H   18.29813500    6.73371000   15.46853300
 H   17.15212200    6.92335600   14.14033300
 H   17.03827000    5.52653500   15.21054200
 H   19.23929800    4.70368000   14.38041000
 H   19.36770200    6.11703400   13.33058300
 H   17.37219400    5.39390500   12.06941400
 H   17.12646800    4.05743300   13.19186800
 H   18.11674200    3.15079700   11.21495400
 H   19.33393500    3.09377300   12.48784100
 H   20.39636300    5.14995200   11.54966700
 H   19.14726500    5.21886100   10.30392400
 H   19.89288800    2.94656500    9.50193400
 H   22.01558400    3.75676300    8.45734200
 H   20.75390100    4.98899700    8.39139300
 H   22.04863900    5.11855600    9.58279500
 H   22.16208900    3.27066500   11.37134200
 H   20.47889500    1.03507600   10.47876700
27
-32.81687136981
 C   17.30238400    6.58329600   14.57287800
 C   18.44014600    5.64943900   14.17485800
 C   18.13497600    4.82421300   12.92406400
 C   17.02266400    3.79864800   13.13574100
 C   16.82323800    2.92251900   11.90072500
 C   15.74428700    1.85229100   12.10917500
 C   15.47031800    1.08299400   10.81902100
 N   16.15247500    0.92598400   13.14720400
 C   15.63784000    0.84693000   14.36387500
 O   16.02972900    0.09665700   15.24687400
 H   17.60277200    7.20450800   15.41334100
 H   17.03709600    7.23400500   13.74273100
 H   16.42052600    6.02129000   14.86857700
 H   18.66287200    4.97520700   15.00528000
 H   19.33500000    6.24699600   13.98633700
 H   19.04481000    4.29821300   12.62548300
 H   17.85790500    5.49627000   12.10903900
 H   16.08723900    4.31255200   13.36237400
 H   17.27321300    3.17092000   13.99507500
 H   17.76525300    2.43457300   11.64358400
 H   16.53024000    3.54964700   11.05828500
 H   14.82275900    2.33246300   12.45441000
 H   14.73647000    0.30115100   10.99447800
 H   15.08583700    1.75711200   10.06012800
 H   16.38486600    0.62827100   10.44787900
 H   16.94378700    0.32905100   12.93969700
 H   14.78776300    1.53067600   14.53184700
27
-32.81661562465
 C   16.95101000    6.20458300   14.62842900
 C   18.24847300    5.65090700   14.04901500
 C   18.03178800    4.81269900   12.78814500
 C   17.34677900    3.47691900   13.07431600
 C   17.21257800    2.59309300   11.83331400
 C   16.16357800    3.09768500   10.83208600
 C   16.12125900    2.21231100    9.58914500
 N   14.85395600    3.12334000   11.45274600
 C   14.19624400    4.20710600   11.83310100
 O   13.12426300    4.20983900   12.42226500
 H   17.16043800    6.83458200   15.48961800
 H   16.42632000    6.80382700   13.88691000
 H   16.28821400    5.40478500   14.94910200
 H   18.75282600    5.04449700   14.80442900
 H   18.90610700    6.48802100   13.80398400
 H   19.00198800    4.61679800   12.32582500
 H   17.43789900    5.39563100   12.08186200
 H   16.35612300    3.65275900   13.49837400
 H   17.93448500    2.94053500   13.82223600
 H   16.93496900    1.58405200   12.14367600
 H   18.17521300    2.53473300   11.32467100
 H   16.39938600    4.12432100   10.53851400
 H   15.35498800    2.56150300    8.90251500
 H   17.08072800    2.23924800    9.08222200
 H   15.90310300    1.18356700    9.86345100
 H   14.44656400    2.22758900   11.69227100
 H   14.69905000    5.15122900   11.56100500
27
-32.81641094271
 C   17.31474200    6.15662400   14.73137500
 C   18.53894700    5.54359400   14.06239300
 C   18.14817900    4.50221100   13.01590000
 C   19.37501200    3.86138900   12.36958800
 C   19.03491900    2.93886500   11.19837700
 C   18.18632100    1.72097600   11.58487900
 C   17.92052500    0.83556700   10.36995600
 N   18.85134400    0.94310800   12.61703200
 C   18.39773400    0.82481100   13.85913700
 O   17.37388600    1.32296000   14.30194800
 H   17.61105600    6.88730500   15.48006700
 H   16.68620700    6.65218400   13.99489400
 H   16.72541100    5.38260500   15.21864400
 H   19.16551200    5.06985600   14.82201400
 H   19.12884100    6.33227100   13.58917800
 H   17.53636100    4.97849100   12.24624200
 H   17.54206600    3.73365100   13.50043400
 H   19.92458300    3.30453700   13.13233000
 H   20.03281400    4.65248600   12.00199300
 H   19.96413200    2.58770800   10.74446300
 H   18.48661600    3.50556600   10.44507500
 H   17.23741800    2.04897700   12.01792400
 H   17.32887200   -0.03015200   10.65555100
 H   17.37329600    1.39558700    9.61810000
 H   18.85731100    0.49528200    9.93567900
 H   19.71930100    0.49792400   12.35885900
 H   19.04674700    0.20368200   14.50154600
27
-32.81635190162
 C   17.18006100    6.32373800   14.91514400
 C   18.34084400    5.58112500   14.26259500
 C   17.89118200    4.47793000   13.30263600
 C   17.20807600    5.02034000   12.04790800
 C   16.81687100    3.92243900   11.05703700
 C   18.00934800    3.32016900   10.30030000
 C   17.56252800    2.17177300    9.39917500
 N   18.65868800    4.33909200    9.49942600
 C   19.82380100    4.90832700    9.76454800
 O   20.32651400    5.81729700    9.11828600
 H   17.55398500    7.03609500   15.64668700
 H   16.60071200    6.87223700   14.17746400
 H   16.52073200    5.62372100   15.42331800
 H   18.95249400    5.12958800   15.04734400
 H   18.97101000    6.29182700   13.72215500
 H   17.20755400    3.80537800   13.82510200
 H   18.77196400    3.90008700   13.01587700
 H   17.87210900    5.73761600   11.55763400
 H   16.30371300    5.55538800   12.33937800
 H   16.11972000    4.33499800   10.32539800
 H   16.30637800    3.12083600   11.59128600
 H   18.75217000    2.95325000   11.01416200
 H   18.40767200    1.77873700    8.84079700
 H   17.14099400    1.37233800   10.00038800
 H   16.80662600    2.51256800    8.69665000
 H   18.13300900    4.70712400    8.71589900
 H   20.33959000    4.48022900   10.64152400
27
-32.8163278621
 C   17.37007800    6.66027200   14.15210200
 C   18.54020800    5.71031300   13.92549400
 C   18.14405000    4.51978400   13.05472600
 C   19.31427300    3.56628900   12.82080200
 C   18.90108500    2.37448100   11.95904800
 C   20.07580600    1.45450000   11.59907400
 C   20.62692700    0.70570700   12.80980400
 N   19.64519000    0.49576100   10.59766000
 C   20.07229200    0.43447600    9.34656400
 O   19.68520400   -0.36754100    8.50851800
 H   17.67273700    7.49921400   14.77386800
 H   17.00588800    7.04938300   13.20385900
 H   16.55034700    6.14407400   14.64672800
 H   18.90374100    5.34768800   14.88939600
 H   19.35848900    6.25172000   13.44556900
 H   17.77502100    4.88544200   12.09372200
 H   17.32711100    3.97891600   13.53748900
 H   19.68221400    3.21680700   13.78597000
 H   20.12522300    4.10712700   12.32845900
 H   18.46075000    2.74554700   11.03061800
 H   18.13792000    1.79625400   12.48274200
 H   20.87312900    2.05191800   11.14447900
 H   21.39374900    0.00285900   12.49478900
 H   21.06854700    1.40317500   13.51358600
 H   19.83370500    0.15736500   13.31078000
 H   18.93634700   -0.17011300   10.87940200
 H   20.83986100    1.18925800    9.10248200
27
-32.81627334546
 C   17.58916700    6.79852400   13.83161700
 C   17.84627600    5.38297900   14.33610500
 C   18.42651300    4.49437200   13.23694000
 C   18.54797400    3.02168500   13.63448900
 C   19.49560300    2.74381900   14.80344900
 C   20.97089800    3.01850100   14.48399600
 C   21.84655500    2.80017500   15.71594300
 N   21.41990500    2.15188400   13.41201400
 C   21.71449400    2.52857300   12.17827500
 O   22.04355200    1.77588300   11.27189000
 H   17.18893300    7.42175100   14.62752000
 H   18.51214500    7.24946300   13.47342200
 H   16.87475100    6.78845500   13.01129900
 H   16.90875800    4.95014700   14.69160400
 H   18.53584400    5.43009600   15.17991100
 H   19.40030500    4.88396400   12.93414200
 H   17.77425300    4.55319500   12.36194400
 H   18.88280100    2.45364100   12.76234300
 H   17.55563100    2.65360100   13.90328200
 H   19.39471700    1.69504900   15.08939800
 H   19.20748400    3.34936200   15.66125300
 H   21.08828700    4.04784600   14.13436900
 H   22.89247800    2.96049300   15.46875000
 H   21.56426000    3.49565000   16.50015400
 H   21.72683700    1.78745000   16.09171300
 H   21.45296000    1.15963200   13.61196900
 H   21.64812300    3.61848900   12.01714300
27
-32.81614961635
 C   16.93812900    6.33319800   14.45057500
 C   18.33655400    5.99922400   13.94425500
 C   18.31138500    4.89414600   12.89103500
 C   19.71081900    4.55403400   12.38358600
 C   19.68088200    3.44987400   11.32919900
 C   21.08007000    3.08040900   10.82489800
 C   21.02988100    1.89087000    9.86968800
 N   21.68823500    4.21703300   10.15207000
 C   22.74817700    4.86971800   10.61398900
 O   23.36387700    4.61021600   11.63639500
 H   16.98019800    7.12380400   15.19563000
 H   16.30588200    6.66629300   13.63068200
 H   16.47865400    5.45777900   14.90373800
 H   18.96131400    5.68279400   14.78266500
 H   18.79209800    6.89518700   13.51601100
 H   17.68913600    5.21286400   12.05172200
 H   17.85586900    3.99927100   13.32070900
 H   20.33514500    4.23579100   13.22201400
 H   20.17101100    5.45234000   11.96458900
 H   19.06736000    3.76842200   10.48389400
 H   19.22394000    2.55743200   11.75789600
 H   21.72985300    2.85360800   11.67648700
 H   22.02627600    1.65853200    9.50332400
 H   20.63906200    1.01910200   10.38499500
 H   20.38490800    2.11263400    9.02317400
 H   21.24692700    4.52267800    9.29769700
 H   23.05483100    5.71097200    9.96744200
27
-32.81607338113
 C   17.70128100    6.31955700   14.82751100
 C   18.48214000    5.44257300   13.85522200
 C   17.58705300    4.68013200   12.87582400
 C   16.74958800    5.56175400   11.94729900
 C   17.59714100    6.44319100   11.03176700
 C   16.75107200    7.16925600    9.97813100
 C   17.59111200    8.16791000    9.18476300
 N   16.15276100    6.21175600    9.06874400
 C   14.86538500    5.91668600    8.98583300
 O   14.38264100    5.07251700    8.24390700
 H   18.37253800    6.75230000   15.56551300
 H   17.20105600    7.13262100   14.30862200
 H   16.95069300    5.73102500   15.35073900
 H   19.05570700    4.70888400   14.42658300
 H   19.19706200    6.05493500   13.30436200
 H   16.90899300    4.04171500   13.44724900
 H   18.21635000    4.02673000   12.26676900
 H   16.07999000    6.18732200   12.53944900
 H   16.12343900    4.90799500   11.33359100
 H   18.34564200    5.82899400   10.52763000
 H   18.11930200    7.19454700   11.62273000
 H   15.92819200    7.69334800   10.47532000
 H   16.98751100    8.64085300    8.41487500
 H   17.97619500    8.93757300    9.84630000
 H   18.43035500    7.66504800    8.71176500
 H   16.78795500    5.68321700    8.48319600
 H   14.22802500    6.51667300    9.65834300
27
-32.81603860804
 C   16.81186900    5.83204300   14.40847500
 C   18.26350500    5.71888900   13.95492500
 C   18.44132800    4.76395700   12.77416000
 C   18.14362500    3.30946900   13.13524400
 C   18.49347100    2.32949300   12.01449100
 C   17.65557300    2.51658700   10.74282300
 C   18.03683500    1.48793900    9.68160100
 N   16.23885600    2.39783900   11.04575700
 C   15.38437200    3.41304300   11.00229600
 O   15.64722600    4.56344600   10.68655800
 H   16.70427800    6.62576100   15.14395700
 H   16.17031800    6.05910400   13.55862600
 H   16.46932800    4.90416800   14.85893900
 H   18.88253900    5.38694100   14.79182700
 H   18.61512300    6.70838200   13.65398400
 H   19.47014400    4.83741100   12.41335500
 H   17.77768500    5.08638500   11.96902500
 H   17.08581100    3.21005800   13.38444500
 H   18.72191100    3.04085500   14.02232700
 H   18.35167100    1.30969800   12.37889800
 H   19.54425400    2.44779600   11.74769500
 H   17.79709000    3.52617400   10.34774800
 H   17.43228100    1.62366100    8.78877400
 H   19.08194400    1.60535400    9.41267300
 H   17.88678100    0.47961800   10.05963700
 H   15.91688600    1.48867200   11.34209800
 H   14.35553400    3.12574800   11.28331600
27
-32.81552525186
 C   16.12489500    6.20913000   13.96810900
 C   17.09306000    5.06384500   14.24012800
 C   18.15535700    4.96253600   13.14715800
 C   19.07002200    3.74434100   13.28685100
 C   19.85924500    3.67314900   14.59572300
 C   20.78830800    4.86880900   14.83666800
 C   21.54517200    4.71235700   16.15350800
 N   21.73861600    5.00261500   13.74483900
 C   21.75717000    6.02637500   12.90040400
 O   21.01003700    6.99288100   12.92531600
 H   15.38572100    6.28475400   14.76199800
 H   16.66407600    7.15223000   13.90698300
 H   15.60397500    6.05432500   13.02565100
 H   16.53847300    4.12399600   14.29277200
 H   17.57024100    5.22914400   15.20702700
 H   18.75170100    5.87772000   13.13115400
 H   17.65225800    4.89620900   12.17863600
 H   19.76813900    3.74681900   12.44602200
 H   18.46314000    2.83925300   13.20801000
 H   20.46025300    2.76108100   14.58728400
 H   19.16882500    3.60539600   15.43561000
 H   20.21119600    5.79728600   14.85069600
 H   22.21030200    5.55763900   16.30955400
 H   20.84348900    4.66749300   16.98065700
 H   22.13266800    3.79756700   16.14703600
 H   22.39613400    4.24646800   13.62640700
 H   22.54489200    5.94113000   12.13124400
27
-32.81543575568
 C   17.52449700    6.41476900   14.74869900
 C   18.51173800    5.47656700   14.06301500
 C   18.02203300    4.97263900   12.70425000
 C   16.81274500    4.04436400   12.80623100
 C   16.42623500    3.48613800   11.43773700
 C   15.27399000    2.47403700   11.50473900
 C   13.93878600    3.12750700   11.85115100
 N   15.15619100    1.79363600   10.22783100
 C   15.40283500    0.51273000   10.00439700
 O   15.31614400   -0.04223900    8.91816700
 H   17.95840300    6.81417500   15.66230900
 H   17.27642200    7.24774000   14.09478400
 H   16.60714500    5.89495600   15.01077700
 H   18.71281400    4.62218800   14.71302300
 H   19.45528000    6.00685000   13.91491500
 H   18.83937700    4.43466900   12.21776600
 H   17.77006800    5.82887400   12.07491900
 H   15.97118200    4.59365800   13.22602000
 H   17.05051600    3.21952000   13.48142100
 H   17.29425800    2.98713300   11.00013800
 H   16.14606000    4.30870800   10.77743800
 H   15.51214500    1.70880900   12.25110500
 H   13.14138700    2.39021000   11.80882700
 H   13.97165500    3.54115800   12.85351300
 H   13.71428000    3.92680300   11.15001000
 H   14.88086600    2.35786500    9.43345400
 H   15.70194100   -0.04559300   10.90839700
27
-32.81498882816
 C   17.33509900    6.15344800   14.74546500
 C   18.51398200    5.41042000   14.12608200
 C   18.12907600    4.76146100   12.79841500
 C   19.30005100    4.13816500   12.03521000
 C   19.94144300    2.93206400   12.73351300
 C   21.18429700    3.28081200   13.56499700
 C   21.71454900    2.05007600   14.29784500
 N   22.22099600    3.81765100   12.70595200
 C   22.67683900    5.05982600   12.72601400
 O   23.52319000    5.51348700   11.96835700
 H   17.62084200    6.60260200   15.69357500
 H   16.99003300    6.94357400   14.08210000
 H   16.50694400    5.47125800   14.92360500
 H   18.85448600    4.64691000   14.82682900
 H   19.33461000    6.11290200   13.95940900
 H   17.67677900    5.52497300   12.16034300
 H   17.37050200    3.99683300   12.98006900
 H   20.05925600    4.90262900   11.85109400
 H   18.92377300    3.82027500   11.06108200
 H   20.23869400    2.19633500   11.98437500
 H   19.20922700    2.45768900   13.38654800
 H   20.94146800    4.06194300   14.28957400
 H   22.61934200    2.29842800   14.84597600
 H   20.97080800    1.68731100   15.00047400
 H   21.94063700    1.25575500   13.59142100
 H   22.59445000    3.19882700   11.99658200
 H   22.22402400    5.68634400   13.51464200
27
-32.81494378382
 C   17.55536100    5.97807700   14.57678100
 C   18.47604200    5.88810000   13.36432700
 C   18.09108300    4.77529500   12.38656700
 C   18.32298700    3.37628100   12.95769800
 C   17.93327000    2.24239600   12.00374600
 C   19.00507600    1.87983100   10.96762000
 C   18.63961200    0.58543900   10.23980800
 N   19.17937400    2.93959100    9.99523700
 C   20.29558000    3.61440400    9.77148000
 O   20.42360600    4.50872000    8.94680900
 H   17.82135200    6.83869900   15.18584200
 H   16.52094200    6.08958600   14.25977200
 H   17.63404600    5.08930000   15.19670800
 H   19.50463700    5.73312200   13.69838000
 H   18.44699500    6.84064400   12.82975600
 H   18.67952900    4.90637900   11.47692000
 H   17.03710900    4.88643000   12.12116200
 H   17.72822800    3.27326000   13.86612500
 H   19.37335100    3.27200900   13.23858200
 H   17.00736600    2.50280100   11.48863600
 H   17.74346700    1.34439200   12.59255700
 H   19.96719500    1.75281300   11.47478700
 H   19.38398300    0.35723200    9.48151400
 H   18.59668300   -0.23983900   10.94357600
 H   17.66997800    0.68305400    9.75896000
 H   18.37267300    3.17732300    9.43098700
 H   21.13882600    3.30517000   10.41308000
27
-32.81473531157
 C   17.41876400    5.73237800   15.01385600
 C   18.56263700    5.55278500   14.02167900
 C   18.08806100    5.20310100   12.61028400
 C   17.30754000    3.89093300   12.49457600
 C   18.04780700    2.65076500   12.99886000
 C   19.36141300    2.36212100   12.26357900
 C   20.04010600    1.11665900   12.82879900
 N   19.11699200    2.17869500   10.84207800
 C   19.56008000    3.00583100    9.90341500
 O   20.23233900    4.00941200   10.08762800
 H   17.80343100    6.07368200   15.97210100
 H   16.71099900    6.47193000   14.64570300
 H   16.88843200    4.79787900   15.17494800
 H   19.24593300    4.78419300   14.38567800
 H   19.12928100    6.48533000   13.96315200
 H   18.95331300    5.16952500   11.94372600
 H   17.44326900    6.00958800   12.25067800
 H   17.04919100    3.75110000   11.44173700
 H   16.37206000    3.98025400   13.04908200
 H   17.38936200    1.78619100   12.88759300
 H   18.26926000    2.76204400   14.05961200
 H   20.03532800    3.21928200   12.34525900
 H   20.96005200    0.90969900   12.28829500
 H   20.28198400    1.27039000   13.87591300
 H   19.38161800    0.25533000   12.74760100
 H   18.55763400    1.38085200   10.57984900
 H   19.26418500    2.70405400    8.88314500
27
-32.81452698191
 C   16.81662400    5.74889600   14.96721600
 C   18.20464300    5.74801800   14.33550900
 C   18.28013700    4.93120700   13.04452200
 C   17.48259600    5.54579800   11.89484700
 C   17.66529100    4.73801600   10.61108700
 C   16.90543400    5.28900100    9.39175600
 C   15.39227100    5.29490000    9.58415300
 N   17.35515000    6.62915100    9.06424100
 C   18.25422000    6.93821300    8.14353700
 O   18.66621700    8.06640000    7.91292600
 H   16.83982100    6.26604800   15.92354100
 H   16.09565200    6.25299300   14.32963800
 H   16.47651300    4.72988700   15.13710700
 H   18.91563600    5.32969800   15.05174500
 H   18.51187200    6.77616600   14.13068300
 H   17.91570400    3.92003400   13.23870200
 H   19.32777100    4.85206400   12.74332100
 H   17.82632100    6.57027200   11.73803500
 H   16.42811200    5.57200500   12.16549900
 H   17.33354200    3.71290200   10.78208300
 H   18.72884100    4.70626900   10.36253700
 H   17.15347100    4.65488200    8.53305100
 H   14.90003200    5.59538600    8.66324200
 H   15.05065500    4.30008300    9.85239500
 H   15.10461100    5.98697800   10.36981400
 H   16.99465900    7.38650600    9.63095000
 H   18.61446700    6.06909000    7.56600900
27
-32.81418201356
 C   17.81718700    6.79787400   13.90381400
 C   18.53099400    5.45582400   14.02192300
 C   18.16017700    4.47968500   12.90467800
 C   18.65394800    4.86481300   11.50734900
 C   20.18226700    4.85006400   11.36171900
 C   20.82711700    6.24037700   11.42952900
 C   22.35166000    6.13893400   11.39775100
 N   20.36831100    7.04898600   10.31667200
 C   19.74182900    8.21081600   10.40636300
 O   19.35022300    8.87684600    9.45812900
 H   18.08698800    7.44580800   14.73474600
 H   18.07688100    7.30654300   12.97829700
 H   16.73869100    6.65561700   13.91799600
 H   18.25620300    5.00123800   14.97668200
 H   19.61059600    5.60991400   14.03612800
 H   17.07170500    4.38881000   12.87251500
 H   18.56286200    3.49493800   13.15313100
 H   18.26636000    5.84743700   11.23305800
 H   18.22440500    4.14859000   10.80449400
 H   20.45361000    4.40473000   10.40320700
 H   20.61642000    4.22827500   12.14444500
 H   20.51672600    6.75609500   12.34209700
 H   22.79555000    7.13096400   11.40110600
 H   22.70619500    5.59623500   12.26858700
 H   22.67844900    5.61334500   10.50443500
 H   20.53804000    6.68562400    9.38669700
 H   19.59039000    8.55625900   11.44448600
27
-32.81403477864
 C   16.70914100    6.19318400   14.43119600
 C   18.00116600    6.23583200   13.62273000
 C   18.28695300    4.89289600   12.95344400
 C   19.44946600    4.92802100   11.95945000
 C   20.81145800    5.23123900   12.59679900
 C   21.21516700    6.70907700   12.51307300
 C   22.50526300    6.97128400   13.28536400
 N   21.39565500    7.09765600   11.12309500
 C   20.59200300    7.93637300   10.48010700
 O   19.61564600    8.50136500   10.94962300
 H   16.52622300    7.15245400   14.90919500
 H   15.86273400    5.96493800   13.78702600
 H   16.76833200    5.42854200   15.20282500
 H   18.82409700    6.49876300   14.28924500
 H   17.92654000    7.01321500   12.85738200
 H   17.38938300    4.57746300   12.41523000
 H   18.48911800    4.14283600   13.72184200
 H   19.23119100    5.67255500   11.19036600
 H   19.49515000    3.95523400   11.46586800
 H   21.58605800    4.64417300   12.09944200
 H   20.79657500    4.93435700   13.64541800
 H   20.41229800    7.34381500   12.89594100
 H   22.80233700    8.01169100   13.18357400
 H   22.35498400    6.75696400   14.33895500
 H   23.30585500    6.33686800   12.91314000
 H   22.16709800    6.67217700   10.63099600
 H   20.88718500    8.09985400    9.42841700
27
-32.81389485423
 C   17.62326000    6.78408800   13.76597000
 C   18.68513700    5.72253200   14.03134300
 C   18.47945800    4.46803200   13.18154200
 C   18.73267000    4.69886100   11.68184800
 C   19.72576500    3.70457700   11.07648600
 C   21.17043100    3.94105400   11.53264700
 C   22.09709400    2.84155600   11.01567500
 N   21.63589900    5.22973800   11.05994300
 C   22.01732200    6.24714200   11.81469800
 O   22.38801900    7.33480300   11.39505200
 H   17.77053200    7.64126700   14.41882100
 H   17.67024000    7.13019300   12.73641100
 H   16.62971700    6.38008500   13.94666400
 H   18.65213500    5.44530000   15.08763700
 H   19.67294800    6.14520100   13.83134200
 H   17.45701400    4.11769400   13.33368300
 H   19.14289500    3.68368400   13.54923200
 H   19.11104400    5.71127400   11.52493900
 H   17.79309000    4.61953800   11.13430100
 H   19.68918300    3.77991400    9.98825800
 H   19.43562300    2.69010200   11.35045200
 H   21.21383000    3.97150300   12.62551200
 H   23.12670500    3.05574900   11.28947400
 H   21.81391200    1.88587500   11.44586200
 H   22.03179800    2.76835900    9.93340400
 H   21.65354500    5.37505000   10.05764800
 H   21.98205300    6.03716200   12.89818200
27
-32.81381005694
 C   17.41141000    6.56733600   14.51521300
 C   18.26295000    5.31665000   14.33163900
 C   18.17124800    4.76847700   12.90893400
 C   19.12652300    3.59806000   12.68585100
 C   19.03437100    3.05716300   11.25953000
 C   19.93340300    1.83888200   11.02756900
 C   19.80218800    1.31247700    9.59795900
 N   21.33430300    2.12246600   11.32794700
 C   22.02410100    3.19370000   10.96165800
 O   23.23130700    3.32627100   11.11865200
 H   17.49286700    6.93909400   15.53363500
 H   17.73569300    7.35281200   13.83637700
 H   16.36559900    6.34865400   14.31128700
 H   17.93775500    4.54984000   15.03771700
 H   19.30594700    5.55175700   14.55794000
 H   18.40400400    5.56768600   12.20145200
 H   17.14714300    4.44236000   12.71477100
 H   18.88576700    2.80131300   13.39234900
 H   20.14950200    3.92497400   12.88533100
 H   19.27207400    3.84947300   10.54965100
 H   18.00749700    2.74179500   11.06542400
 H   19.63421300    1.05780500   11.73313000
 H   20.43848600    0.44362500    9.45213600
 H   18.77394400    1.02842800    9.39724600
 H   20.10143100    2.08004200    8.88825000
 H   21.88783300    1.34123800   11.65574400
 H   21.42401000    4.00372700   10.52177900
27
-32.81374881926
 C   17.93258800    6.58971800   14.62357800
 C   18.74732900    5.88825400   13.54293000
 C   18.37386200    4.41248200   13.41785400
 C   19.19293300    3.71233300   12.33501200
 C   18.77718600    2.25972500   12.09609900
 C   19.07224600    1.32495500   13.27772900
 C   18.64114300   -0.10802100   12.96331900
 N   20.48015300    1.37112700   13.65546700
 C   21.50099700    1.04638700   12.87568100
 O   22.67773700    1.11264200   13.20669800
 H   18.21439300    7.63730600   14.69519200
 H   16.87055200    6.53450400   14.39568000
 H   18.10005500    6.12285900   15.59160800
 H   19.81109800    5.97200400   13.77775700
 H   18.58219300    6.38574100   12.58459600
 H   17.31172500    4.33145800   13.17616400
 H   18.53487100    3.92960600   14.38276800
 H   20.25355200    3.75004100   12.59563200
 H   19.07070100    4.26042200   11.39815900
 H   19.29749600    1.88828600   11.21176800
 H   17.70638700    2.21999500   11.89331700
 H   18.51337100    1.67023900   14.15007900
 H   18.88691800   -0.76581700   13.79257100
 H   17.56855800   -0.14022500   12.79846400
 H   19.13940100   -0.47694200   12.07112100
 H   20.71652100    1.69857400   14.58218500
 H   21.21718800    0.69766300   11.87107400
27
-32.81346625797
 C   17.23950700    5.86188000   14.80819300
 C   18.53377000    5.35414200   14.18322700
 C   18.29274100    4.76305700   12.79413200
 C   19.57315600    4.22948300   12.12984100
 C   19.60259900    2.70560900   11.99648400
 C   19.76047900    1.97221600   13.33099400
 C   19.60993400    0.46212500   13.15034200
 N   21.06557300    2.26566000   13.90180100
 C   21.25445700    2.73270400   15.12960200
 O   20.38058200    3.00689300   15.93826200
 H   17.43189200    6.28372500   15.79161000
 H   16.78923300    6.63083600   14.18369400
 H   16.52630800    5.04820500   14.91959600
 H   18.97946700    4.60528800   14.84158200
 H   19.24299200    6.18216200   14.10326900
 H   17.85016900    5.54071700   12.16797500
 H   17.55738100    3.96046400   12.87600800
 H   20.44064400    4.55785600   12.70586200
 H   19.66715800    4.65502800   11.12968900
 H   20.43083000    2.41848800   11.34480100
 H   18.67829500    2.37068500   11.52495700
 H   19.02321400    2.33186100   14.05392200
 H   19.75761600   -0.04599000   14.10002600
 H   18.61456000    0.22892200   12.78513600
 H   20.33962600    0.09137300   12.43473000
 H   21.86465100    2.05145300   13.32391300
 H   22.32038100    2.87352000   15.38138600
