21
-62.62085726138
 O   16.68642500   47.31814100   17.92453000
 N   16.37508900   46.37312000   18.63121300
 O   16.24889000   46.45864700   19.84105300
 C   16.14881800   45.10738200   18.01251800
 C   15.81239400   44.00981000   18.79898000
 C   16.25980200   45.01306100   16.62780300
 C   16.04388500   43.78385100   16.02343900
 C   15.68378100   42.68133800   16.80352600
 C   15.57051900   42.79744400   18.17768900
 N   16.13362200   43.61062700   14.63724500
 C   16.93088800   44.22194500   13.72962900
 C   17.96576800   45.22949300   14.04964000
 C   16.61624400   43.65183100   12.49581200
 C   15.60073500   42.68841700   12.77577200
 N   15.34176800   42.68016400   14.06039000
 C   14.89000200   41.78783600   11.83920100
 C   17.23138000   43.97122500   11.22023700
 O   18.10898700   44.80649700   11.06020100
 O   16.73018600   43.24889500   10.21321000
 C   17.26912600   43.46382100    8.90304100
 C   18.51353600   42.61974600    8.66854200
21
-62.62085200498
 O   18.36068700   35.98615800    5.10196300
 N   18.17775900   36.96809000    5.80146000
 O   18.33490500   36.96383500    7.01163600
 C   17.76188800   38.18084000    5.17446000
 C   17.60478600   38.21998500    3.79250100
 C   17.51455000   39.29323200    5.97444600
 C   17.11838200   40.47623200    5.36879100
 C   16.93689900   40.51817500    3.98340700
 C   17.17896600   39.39893800    3.20672300
 N   16.85007600   41.63620600    6.10506100
 C   17.39969800   42.08756300    7.25750600
 C   18.49630400   41.42369700    7.99571500
 C   16.77336000   43.30391200    7.53145000
 C   15.84806200   43.49857500    6.46225400
 N   15.92377100   42.49430000    5.62383000
 C   14.90869000   44.62198900    6.24087900
 C   17.04848700   44.17771800    8.65753500
 O   17.86163500   43.94236800    9.53894000
 O   16.30520500   45.28881400    8.63931500
 C   16.49672400   46.23813800    9.69544700
 C   17.64084800   47.19238300    9.38547200
21
-62.6208491793
 O    9.02835800   37.62901400   13.68155100
 N    9.89863100   38.28158000   13.13064600
 O   11.09050200   38.08687200   13.30540600
 C    9.50366900   39.32404400   12.23931300
 C    8.15057700   39.58145200   12.04144900
 C   10.49340400   40.04865000   11.58089000
 C   10.11305800   41.06532000   10.71776200
 C    8.75626100   41.31601300   10.49590300
 C    7.78747600   40.57895500   11.15406700
 N   11.05135300   41.83415100   10.01865700
 C   12.28881300   42.24368200   10.38459800
 C   12.91865400   41.97621800   11.69608400
 C   12.77378800   43.00130600    9.31801100
 C   11.73123800   42.98628900    8.34297700
 N   10.71486400   42.29215900    8.79310500
 C   11.70174000   43.62167800    7.00550000
 C   14.05785600   43.67586800    9.25873100
 O   14.90224000   43.64300500   10.14177800
 O   14.23224300   44.34950500    8.11759900
 C   15.45553000   45.07689500    7.95098900
 C   15.36481000   46.46519800    8.56740000
21
-62.620845509
 O   19.68899200   51.01275900   15.32003700
 N   18.58466100   51.40362700   15.66168400
 O   18.41276500   52.38263200   16.36799500
 C   17.43891400   50.68027200   15.21324800
 C   16.16709000   51.12908200   15.55547700
 C   17.63303100   49.53106800   14.45171800
 C   16.52220100   48.82702900   14.01153500
 C   15.24180300   49.25711000   14.37078200
 C   15.07029800   50.39817900   15.13447800
 N   16.63664600   47.66050800   13.24583200
 C   17.56525900   47.30706500   12.32580100
 C   18.69262900   48.15739100   11.88512600
 C   17.18409700   46.04858200   11.85913200
 C   15.99073000   45.72908600   12.57417600
 N   15.68423700   46.71229100   13.38451900
 C   15.15417900   44.51004700   12.48690000
 C   17.86283200   45.26838300   10.84017400
 O   18.88536800   45.61324100   10.26635000
 O   17.24926100   44.10816200   10.58756300
 C   17.81539900   43.25691800    9.58343100
 C   17.31385200   43.62742800    8.19533200
21
-62.62083084834
 O   10.25769600   36.74793000   12.11224500
 N   11.17617800   37.54238700   12.00264000
 O   11.87998400   37.88242300   12.93972700
 C   11.44121700   38.10063500   10.71605200
 C   10.67897400   37.69875900    9.62354800
 C   12.45498900   39.04732800   10.59661100
 C   12.71832700   39.58892500    9.34734700
 C   11.94344900   39.20705200    8.24867700
 C   10.93469200   38.27038900    8.38977200
 N   13.71845300   40.54845700    9.14958700
 C   14.91157900   40.70607800    9.77011100
 C   15.44863300   39.81244000   10.81955700
 C   15.51636100   41.80848300    9.16524000
 C   14.58903000   42.24733700    8.17278600
 N   13.53287200   41.47148600    8.18074900
 C   14.70752500   43.38237800    7.22880000
 C   16.82540000   42.35076100    9.48151700
 O   17.57766700   41.90039300   10.33286800
 O   17.14314300   43.40343000    8.72143200
 C   18.41099000   44.03221500    8.94697500
 C   18.32750600   45.06602400   10.06055100
21
-62.62082492495
 O   14.35476300   53.59547200   10.15268000
 N   14.58811400   52.43576200    9.85697200
 O   15.43337500   52.11303200    9.03811700
 C   13.83471000   51.40663300   10.49752000
 C   12.84949200   51.74931500   11.41838900
 C   14.11968700   50.08001800   10.18546600
 C   13.38477900   49.07731800   10.79992800
 C   12.40836600   49.41173700   11.74254200
 C   12.14651400   50.73613400   12.04587000
 N   13.61374800   47.72106800   10.53921900
 C   14.01409400   47.10478000    9.40196800
 C   14.26732400   47.78216900    8.11140100
 C   14.05672800   45.74185700    9.69797000
 C   13.65435300   45.64205800   11.06386000
 N   13.38748300   46.83565200   11.53427900
 C   13.52137800   44.43288500   11.90854400
 C   14.40741300   44.67358200    8.77933300
 O   14.71524100   44.83577300    7.60784400
 O   14.33994500   43.46517800    9.34710500
 C   14.66697200   42.32787000    8.53911800
 C   16.16542500   42.06324500    8.53127800
21
-62.62056587296
 O   10.07317300   42.63696400   15.67458300
 N   10.23078100   43.58487600   16.42662600
 O    9.58470400   43.73981600   17.44897600
 C   11.21826900   44.56063900   16.09313300
 C   11.39152900   45.66918400   16.91583700
 C   11.99099200   44.36350200   14.95198400
 C   12.94699400   45.31244400   14.62170600
 C   13.14235700   46.41832100   15.45399600
 C   12.36998400   46.59128400   16.58888500
 N   13.76540200   45.18350800   13.49321200
 C   13.51505100   44.61384700   12.29051600
 C   12.22450000   44.01767800   11.88126100
 C   14.67713000   44.78174200   11.53656600
 C   15.58206700   45.47951700   12.39223500
 N   15.00724600   45.71345100   13.54622100
 C   16.96804400   45.92018400   12.11290200
 C   14.88409500   44.35048000   10.16643900
 O   14.05336000   43.77117400    9.48053000
 O   16.09757300   44.65654900    9.70378100
 C   16.39811300   44.27191100    8.35645400
 C   17.84123700   44.63782700    8.06809200
21
-62.62047540552
 O   16.24595500   43.42944800   18.90403300
 N   15.95422600   44.58136500   19.18157900
 O   15.76850000   44.96561500   20.32378100
 C   15.82227300   45.52434100   18.11821600
 C   15.47360100   46.83998500   18.40750700
 C   16.05993300   45.09678400   16.81478200
 C   15.92730300   46.00902900   15.77880400
 C   15.60028500   47.33791800   16.06227000
 C   15.37593100   47.74514700   17.36561000
 N   16.15234100   45.65328500   14.44355800
 C   15.92702100   44.48223800   13.80276500
 C   15.31428400   43.28307100   14.41503200
 C   16.31689100   44.68733300   12.47902100
 C   16.76942900   46.04018400   12.42664500
 N   16.65000100   46.59224600   13.60932400
 C   17.30732400   46.79521700   11.27152900
 C   16.23790300   43.71762000   11.40128200
 O   15.84439800   42.56722400   11.53111200
 O   16.63379900   44.22378600   10.23132800
 C   16.63495900   43.37866700    9.07315900
 C   18.04152900   43.28697300    8.50315400
21
-62.62000232808
 O   13.23527300   51.11670100   13.92359700
 N   13.30568500   50.09858500   13.25661000
 O   14.04226300   49.98212100   12.29108600
 C   12.48717600   48.98795300   13.62395100
 C   11.66767300   49.07993500   14.74479500
 C   12.52458100   47.84207600   12.83439700
 C   11.73457300   46.75973600   13.19274600
 C   10.89132400   46.85127000   14.30254400
 C   10.86188500   48.00309300   15.06949100
 N   11.71979600   45.57876900   12.43967100
 C   12.72868900   44.95818000   11.78403200
 C   14.13958200   45.40391900   11.81910300
 C   12.16049600   43.82819500   11.19565400
 C   10.78408700   43.86019800   11.57332400
 N   10.55152700   44.91044400   12.32229000
 C    9.72222700   42.89288200   11.21464000
 C   12.77485500   42.80940200   10.36491700
 O   12.19129700   41.82393100    9.94322300
 O   14.06612700   43.05227200   10.10211400
 C   14.76318800   42.12086200    9.26438100
 C   14.58081200   42.45780300    7.79198900
21
-62.61999406979
 O   17.51775900   39.17783200    3.91576800
 N   17.42706900   39.89545900    2.93338000
 O   18.00861400   39.66976100    1.88582700
 C   16.60053300   41.05670500    3.01489900
 C   16.51721700   41.91792000    1.92500100
 C   15.88576200   41.28588500    4.18724600
 C   15.08459500   42.41522500    4.26934400
 C   14.97689600   43.27304400    3.17242400
 C   15.68937500   43.02304200    2.01237000
 N   14.33243500   42.70045600    5.41621800
 C   14.63638000   42.50357500    6.72046900
 C   15.94174300   41.99855400    7.20154200
 C   13.52898500   42.95288400    7.44022500
 C   12.60370400   43.41431600    6.45602600
 N   13.11315000   43.26072700    5.25808600
 C   11.25813800   43.99164400    6.67555000
 C   13.30177100   42.96894000    8.87314900
 O   12.30391800   43.42814700    9.40486300
 O   14.30889400   42.42758100    9.57230400
 C   14.17584400   42.37124200   10.99867100
 C   13.42448100   41.12255900   11.43577200
21
-62.61998793928
 O   23.04980400   39.35479800    8.58841300
 N   23.93987500   40.14249300    8.86335400
 O   25.07480900   40.04599100    8.42872100
 C   23.63702400   41.23137500    9.73586900
 C   24.62858700   42.15615000   10.04874400
 C   22.35169400   41.32708400   10.26180400
 C   22.05476800   42.38662100   11.10630400
 C   23.05033400   43.30570100   11.44609900
 C   24.32459200   43.18821400   10.91881600
 N   20.78452700   42.54081700   11.67585000
 C   19.56332400   42.27433700   11.15585000
 C   19.33364100   41.82011000    9.76610100
 C   18.64569100   42.60558900   12.15308100
 C   19.43331300   43.07651800   13.24659200
 N   20.70455500   43.03513800   12.93052600
 C   18.96253000   43.55571700   14.56588400
 C   17.19803500   42.50960500   12.14719400
 O   16.48161500   42.88412500   13.06151800
 O   16.71089100   41.96619300   11.02329700
 C   15.29053900   41.79896500   10.92392000
 C   14.84126900   40.48894900   11.55378000
21
-62.61998433692
 O   13.71573600   49.07073800   16.59465900
 N   13.87171400   48.38596800   15.59802000
 O   14.90369900   48.37872500   14.94735700
 C   12.79483300   47.55099200   15.17234500
 C   11.62313200   47.50670000   15.92180400
 C   12.94669000   46.81039000   14.00339600
 C   11.90386900   45.99353500   13.59184800
 C   10.71550200   45.96003900   14.32525500
 C   10.58083800   46.71137700   15.47983100
 N   11.98623500   45.22701600   12.42239100
 C   13.04840900   44.58710000   11.87886500
 C   14.38487100   44.51045800   12.50986400
 C   12.57327000   43.98530300   10.71343900
 C   11.18795000   44.32492700   10.65337000
 N   10.86367100   45.05836900   11.68992000
 C   10.20341800   43.94449300    9.61525300
 C   13.28023000   43.18156700    9.73404700
 O   12.75279900   42.65229900    8.76920100
 O   14.59399800   43.08731500    9.98174800
 C   15.39055600   42.31081800    9.07747800
 C   15.39204700   40.83806600    9.46039400
21
-62.61998263476
 O   19.87094200   44.65570500   14.57647400
 N   19.25196600   44.47462500   15.61216900
 O   19.71303400   43.87615100   16.56926400
 C   17.92338700   44.98711000   15.70779600
 C   17.17845000   44.75408800   16.86005200
 C   17.41311400   45.72244700   14.64139900
 C   16.12033000   46.21688300   14.73061400
 C   15.37362500   46.00739500   15.89219800
 C   15.90212800   45.28103200   16.94535000
 N   15.55017600   46.97158500   13.69738800
 C   15.68937700   46.84551700   12.35682400
 C   16.44424900   45.75546500   11.69939200
 C   14.92050100   47.86659100   11.79795800
 C   14.34548100   48.55465700   12.90846100
 N   14.73060500   47.99329200   14.02866100
 C   13.44225600   49.72738900   12.88123200
 C   14.71576200   48.21088500   10.40368800
 O   13.98713100   49.11140700   10.01906600
 O   15.42730100   47.44802800    9.56259800
 C   15.29442700   47.70309200    8.15801700
 C   14.08923500   46.98266700    7.57145700
21
-62.61997090895
 O   18.33444500   48.23459100    5.38878800
 N   17.42452800   48.64137500    4.68536500
 O   17.58273600   49.45904400    3.79512700
 C   16.11012300   48.13201700    4.91426900
 C   15.06258000   48.54414100    4.09647400
 C   15.91482600   47.23950600    5.96448200
 C   14.64106500   46.73530900    6.18223300
 C   13.57871200   47.16107700    5.38112400
 C   13.79204000   48.05738900    4.34840300
 N   14.37140300   45.83709700    7.22240000
 C   15.13929000   44.84652500    7.73436800
 C   16.45661500   44.44902100    7.18931600
 C   14.38813800   44.27655400    8.76255600
 C   13.16076400   45.00552400    8.77929400
 N   13.17507500   45.92371600    7.84433500
 C   12.00267200   44.81385800    9.68139200
 C   14.72465800   43.18578900    9.65823900
 O   13.96643300   42.72781500   10.49792300
 O   15.97373200   42.73213600    9.48811200
 C   16.41122300   41.64912300   10.31944500
 C   16.02809600   40.30185000    9.72464900
21
-62.61996892841
 O   18.24217000   51.75008000   11.08956200
 N   17.83146600   50.62434700   10.86490200
 O   18.54118100   49.63305200   10.90892600
 C   16.45287700   50.45817300   10.53290800
 C   15.63692300   51.57856300   10.40916700
 C   15.96045600   49.16831900   10.35542600
 C   14.62221400   49.00516300   10.02882000
 C   13.79045300   50.12231400    9.92430200
 C   14.29776900   51.39620400   10.11278400
 N   14.05999900   47.73524400    9.84666000
 C   14.59932400   46.62115700    9.29837700
 C   15.93732300   46.57049100    8.66788200
 C   13.61142600   45.64003000    9.38372700
 C   12.49702500   46.28194900   10.00347400
 N   12.78943700   47.53371500   10.25932700
 C   11.18102200   45.69193900   10.33792900
 C   13.64888700   44.25208000    8.96262200
 O   12.70272100   43.48519000    9.04012600
 O   14.83848900   43.88482000    8.46689900
 C   14.99396600   42.52278400    8.04682600
 C   15.38738800   41.62659900    9.21189300
21
-62.61995707987
 O   12.33876200   48.80166800    4.76283700
 N   12.94464000   48.14681300    5.59385500
 O   14.06607300   48.43167300    5.98068200
 C   12.31151200   46.98970200    6.14004800
 C   11.05280600   46.61462200    5.68035700
 C   12.97303600   46.27408100    7.13415100
 C   12.36130900   45.14730900    7.66328500
 C   11.08811900   44.77630600    7.22437500
 C   10.44346500   45.50595400    6.24070400
 N   12.96643800   44.38684700    8.67201700
 C   14.27295600   44.09188700    8.86774300
 C   15.35786400   44.46609600    7.93317500
 C   14.31826100   43.32038300   10.02915000
 C   12.96057400   43.20272300   10.45470500
 N   12.17537100   43.84108800    9.62179100
 C   12.44034400   42.48546200   11.64069600
 C   15.46114200   42.74206400   10.71037000
 O   15.38436100   42.03921100   11.70528200
 O   16.63157100   43.07223300   10.14776200
 C   17.82811800   42.55099800   10.74076100
 C   18.14764400   41.15773600   10.21892100
21
-62.61994243832
 O   19.27172700   37.79483000    3.27177900
 N   19.31340900   38.78641400    3.98079800
 O   20.07781500   39.71521400    3.78505800
 C   18.42459700   38.85783300    5.09701300
 C   17.57873700   37.78498100    5.36780100
 C   18.43129900   39.99642900    5.89250300
 C   17.57262000   40.06267800    6.98290200
 C   16.70320900   39.00489200    7.24683300
 C   16.71797500   37.87360600    6.44534500
 N   17.58716200   41.22627300    7.76285700
 C   17.41894000   41.37754900    9.09710400
 C   17.19817900   40.27032800   10.05328900
 C   17.56413800   42.74179700    9.35011400
 C   17.82605500   43.33291600    8.07778900
 N   17.84432600   42.40362400    7.15320100
 C   18.05522700   44.75808300    7.74590900
 C   17.49166400   43.38546300   10.64939600
 O   17.28164200   42.80142400   11.70218400
 O   17.67515100   44.70753200   10.58044900
 C   17.63872200   45.45115700   11.80494000
 C   18.99699600   45.46269800   12.49058200
21
-62.61993507884
 O    8.13037800   45.20836500   10.27377900
 N    8.09801800   44.97536200    9.07798900
 O    7.08528100   44.63151900    8.49169100
 C    9.30282300   45.11431100    8.32281300
 C    9.28258200   44.87093900    6.95160200
 C   10.46751200   45.49683200    8.97571700
 C   11.63798000   45.63929200    8.24044600
 C   11.63411700   45.37095400    6.87199000
 C   10.45895200   44.99803000    6.23765200
 N   12.80210900   46.01576100    8.92280100
 C   13.83202900   46.79437000    8.51670100
 C   13.92355400   47.45907400    7.19811700
 C   14.70504200   46.87336400    9.60237200
 C   14.09448700   46.09497400   10.63111600
 N   12.95714700   45.60584900   10.20031400
 C   14.58307400   45.82131200   12.00234200
 C   15.94466800   47.62736200    9.65289500
 O   16.39201700   48.29171500    8.72989200
 O   16.55232000   47.53795800   10.83986200
 C   17.79287800   48.23399800   11.01068500
 C   18.96982300   47.39808500   10.52934800
21
-62.61970982443
 O    9.95487500   45.21569900   17.37733100
 N   10.67886900   44.84621000   16.46863000
 O   10.78508900   43.67854100   16.13176900
 C   11.43822800   45.82816500   15.76329700
 C   11.30093800   47.17204100   16.09723300
 C   12.30966700   45.40580800   14.76324200
 C   13.04466900   46.35883400   14.07358900
 C   12.93093300   47.70780700   14.41763500
 C   12.06467300   48.10660500   15.42078700
 N   13.94558300   46.00263800   13.06184000
 C   13.86468600   45.01519600   12.13929700
 C   12.68830300   44.13434400   11.96510300
 C   15.03867600   45.09917100   11.38990200
 C   15.76376400   46.19428500   11.94919900
 N   15.08383000   46.72006200   12.93858400
 C   17.08398300   46.71685700   11.53016300
 C   15.48427100   44.27951800   10.27940700
 O   16.51783100   44.46347300    9.65491500
 O   14.64956600   43.27467100    9.99169900
 C   15.01960700   42.41168200    8.90828400
 C   13.91873200   41.38575800    8.71976300
21
-62.61970794978
 O   11.66688100   42.48426600   15.04451200
 N   11.41355200   43.21264300   15.98980000
 O   10.58606800   42.93714600   16.84183300
 C   12.12176800   44.44676600   16.10483900
 C   11.87918500   45.27868400   17.19365700
 C   13.03293500   44.78807900   15.10920000
 C   13.72820600   45.98290200   15.22285600
 C   13.47429700   46.83506100   16.30022200
 C   12.55745100   46.48183800   17.27504200
 N   14.65451600   46.39112200   14.25476300
 C   15.51585600   45.65434900   13.51440900
 C   15.70827100   44.19517200   13.66911800
 C   16.19179000   46.56441500   12.70115600
 C   15.65764600   47.84324500   13.04376500
 N   14.74958200   47.71050900   13.97934800
 C   16.02266600   49.16116000   12.47691700
 C   17.21677500   46.32584600   11.70310800
 O   17.78424400   47.20403800   11.07153500
 O   17.49238100   45.02944200   11.52211800
 C   18.49159000   44.70758800   10.54547400
 C   18.69144500   43.20429800   10.54669200
21
-62.61969978639
 O    9.02932800   43.87796100   15.29177400
 N    9.46836300   44.47244000   16.26238500
 O    8.86718000   44.56026300   17.31943000
 C   10.74770800   45.09682400   16.15445100
 C   11.26125100   45.80217200   17.23844200
 C   11.45406800   44.96727400   14.96182200
 C   12.69528400   45.57632500   14.85304400
 C   13.22980400   46.26563000   15.94421600
 C   12.51527700   46.37581700   17.12435300
 N   13.46192400   45.48157700   13.68466100
 C   13.06767400   45.45808300   12.39012900
 C   11.66700200   45.62998000   11.94409000
 C   14.23747800   45.34018700   11.63899400
 C   15.29636200   45.30739000   12.59598700
 N   14.80529400   45.40281500   13.80736800
 C   16.74952800   45.19089500   12.33827800
 C   14.40584400   45.25850500   10.20087200
 O   15.48613600   45.20797200    9.63286900
 O   13.24868400   45.23619500    9.53029200
 C   13.32694400   45.15282200    8.10107100
 C   11.91536700   45.14473900    7.54679300
21
-62.61963935775
 O    8.44867400   44.39317700   15.92581900
 N    9.30234300   44.34640700   15.05597800
 O    9.26931800   43.55479900   14.12995800
 C   10.39088000   45.26898200   15.12665800
 C   10.40956900   46.22825500   16.13609600
 C   11.40452000   45.18992200   14.18040700
 C   12.46099500   46.09011700   14.24660000
 C   12.50222200   47.03739700   15.26922000
 C   11.47552600   47.10561400   16.19850200
 N   13.47944900   45.98095800   13.29074500
 C   14.22132600   46.94670200   12.70031300
 C   14.07588400   48.39797800   12.94705500
 C   15.06142000   46.28872100   11.80095700
 C   14.73656700   44.90474800   11.92862200
 N   13.78334500   44.75385300   12.81564200
 C   15.32237100   43.74548100   11.21689400
 C   16.02414200   46.91113200   10.91190400
 O   16.23244500   48.11434300   10.83881200
 O   16.67686300   46.02944700   10.15233000
 C   17.64754100   46.55079200    9.23581700
 C   18.36073600   45.38302100    8.58217400
21
-62.61931494789
 O   10.77144100   38.81723500    9.35644300
 N   11.55688700   39.68423100    9.01185800
 O   12.25373400   39.59707600    8.01582300
 C   11.66014700   40.86115800    9.81569000
 C   10.86396000   40.98569400   10.95162700
 C   12.55170800   41.85803400    9.44028000
 C   12.64793100   43.00392400   10.21958700
 C   11.87822100   43.12457200   11.37644700
 C   10.98716100   42.12231700   11.72826300
 N   13.56386300   43.99191100    9.83363100
 C   13.46460700   45.33936400    9.91475600
 C   12.26150100   46.05576700   10.39445700
 C   14.65444600   45.83989900    9.38552700
 C   15.40733000   44.68969400    9.00122500
 N   14.72866900   43.60145100    9.27231700
 C   16.75429900   44.64919400    8.38801900
 C   15.09211800   47.21525700    9.23856500
 O   16.13202000   47.55148800    8.69507200
 O   14.23166800   48.09820000    9.76301300
 C   14.57843800   49.48794400    9.69758000
 C   15.44849600   49.89644100   10.87704600
21
-62.61929507091
 O    6.60121600   53.49764500    7.10378200
 N    6.91433500   52.44569300    7.63572300
 O    6.10044400   51.62660900    8.02581300
 C    8.30398900   52.16097000    7.80509600
 C    9.25010200   53.07061300    7.33899800
 C    8.67909200   50.97752800    8.42851000
 C   10.03064000   50.70028200    8.58906100
 C   10.98561400   51.61881400    8.15351500
 C   10.59050600   52.78961400    7.52467500
 N   10.39089300   49.50964900    9.23472100
 C   11.42927400   48.67678100    8.98998900
 C   12.39168600   48.85337600    7.87949000
 C   11.31338900   47.64285200    9.91949200
 C   10.14720300   47.95263400   10.68179100
 N    9.61214300   49.06715900   10.24574900
 C    9.56810200   47.18455800   11.80729600
 C   12.16047900   46.48204900   10.11779300
 O   11.93541200   45.59554200   10.92595900
 O   13.24343200   46.48305400    9.32856300
 C   14.14867200   45.37652100    9.43476800
 C   13.71315200   44.21444700    8.55405800
21
-62.61927510592
 O   11.67610200   52.90332100   11.00374700
 N   12.69266500   52.44137300   11.49454200
 O   13.50484400   53.11458000   12.10497900
 C   12.94252400   51.04319900   11.34111600
 C   12.03699700   50.26071600   10.62866100
 C   14.08890800   50.49710900   11.90445300
 C   14.33325600   49.13834100   11.75143700
 C   13.41753100   48.34057700   11.06556400
 C   12.28412000   48.90675200   10.50246800
 N   15.48531700   48.60101700   12.34134200
 C   16.30542800   47.62136100   11.89505200
 C   16.16512500   46.95559300   10.58041100
 C   17.29264300   47.47896000   12.87039300
 C   16.97109900   48.44293400   13.87286900
 N   15.89338200   49.10409700   13.52684000
 C   17.69153000   48.71286100   15.13784100
 C   18.41933200   46.56652800   12.91712900
 O   19.26835800   46.56667500   13.79405200
 O   18.44390300   45.70948800   11.88728000
 C   19.49829300   44.73868300   11.85215000
 C   19.14271700   43.50704100   12.67174800
21
-62.61926725685
 O   15.02724700   47.68540300   20.17552100
 N   14.31157200   46.73756200   19.90185700
 O   13.48865200   46.27647200   20.67500200
 C   14.43696500   46.13796700   18.61125100
 C   13.61050600   45.07015100   18.27004800
 C   15.37935500   46.64051600   17.72279200
 C   15.49510100   46.06175500   16.46550200
 C   14.69287500   44.97277800   16.12477600
 C   13.75258800   44.49165900   17.02285800
 N   16.46150000   46.57087600   15.58729200
 C   16.40906500   46.72493400   14.24366300
 C   15.21520800   46.42917700   13.42026400
 C   17.63627700   47.27769200   13.87718000
 C   18.36075300   47.42596800   15.09808300
 N   17.63207300   47.00463200   16.10313900
 C   19.72845400   47.96248200   15.28124500
 C   18.12910300   47.63849000   12.56111500
 O   19.20417500   48.17744000   12.35291200
 O   17.27605500   47.32273100   11.57719500
 C   17.67503000   47.61223500   10.23085900
 C   18.52853100   46.49328900    9.65249900
21
-62.61905540077
 O   10.96484100   40.82846900   11.77140700
 N   11.03555500   41.01091400   12.97445100
 O   10.49198300   40.28778800   13.79267200
 C   11.79357800   42.12308300   13.45297400
 C   11.91339900   42.32898100   14.82517100
 C   12.39788000   42.97278400   12.53484300
 C   13.13590900   44.05257000   13.00204300
 C   13.23657200   44.28545200   14.37358400
 C   12.63504600   43.41920800   15.27353200
 N   13.72484700   44.91128300   12.06368700
 C   14.91816900   45.54751300   12.11048500
 C   15.90807000   45.37842700   13.19767800
 C   15.00840100   46.27212300   10.92168600
 C   13.79978900   45.98947400   10.21709000
 N   13.05654800   45.16776800   10.91804900
 C   13.37971000   46.50640600    8.89486400
 C   16.06982200   47.14199700   10.45373700
 O   16.08610000   47.69034500    9.36217300
 O   17.05292000   47.30496300   11.34574700
 C   18.13993900   48.15984700   10.96709400
 C   19.08410600   48.27894400   12.14787300
