24
-38.68187781867
 N    6.88806100   11.52382000  -30.60186400
 C    7.62987200   10.84087600  -29.53126100
 C    6.78021500   10.97336500  -28.21665200
 O    5.81377300   11.76968500  -28.32035100
 O    7.11994500   10.31501300  -27.23303800
 C    7.69877800   12.46414900  -31.40085100
 C    8.25509800   13.61920800  -30.56936700
 O    9.44505200   13.20404700  -29.92313000
 C    6.12289600   10.59317000  -31.45924500
 C    5.02683300    9.85615800  -30.67646800
 O    4.02603800   10.73557500  -30.21576900
 H    8.58501500   11.33393700  -29.35050300
 H    7.81046900    9.79137500  -29.75012600
 H    7.06539200   12.87385300  -32.18719700
 H    8.53165100   11.91676900  -31.84607200
 H    7.50774000   13.93989500  -29.83114600
 H    8.47117900   14.45753400  -31.24083900
 H    9.82770700   13.94070400  -29.43126200
 H    6.80852600    9.87340700  -31.90648600
 H    5.63379800   11.17414000  -32.24252800
 H    5.45194300    9.28604100  -29.84252900
 H    4.52679000    9.16035100  -31.35367100
 H    4.34430900   11.18884900  -29.41342900
 H    6.18328600   12.06277200  -30.02215400
24
-38.68113248053
 N    6.90664300   11.62515200  -30.61694400
 C    8.22257200   10.97982600  -30.72047700
 C    9.10791200   11.52542300  -29.53329000
 O   10.19938700   10.99200800  -29.33769900
 O    8.57953600   12.47552600  -28.90907100
 C    6.41742000   12.23318400  -31.87103900
 C    5.38378400   13.33268200  -31.62815500
 O    4.12823900   12.75560800  -31.33172600
 C    5.89001500   10.75532500  -29.98418900
 C    6.20376800   10.48329900  -28.50807900
 O    6.16302000   11.65961500  -27.73057500
 H    8.72965800   11.24663800  -31.64599600
 H    8.16440700    9.89582600  -30.65452600
 H    5.97414600   11.45025200  -32.48871800
 H    7.26636700   12.67688000  -32.38998800
 H    5.31356800   13.93714800  -32.53977500
 H    5.71932400   13.97662500  -30.80420900
 H    3.46205500   13.44678600  -31.23079400
 H    5.83887800    9.81445000  -30.53236000
 H    4.92772500   11.26596800  -30.04750900
 H    7.17397300    9.98449900  -28.39703200
 H    5.42823400    9.82817200  -28.10554200
 H    7.00484400   12.13866200  -27.83387900
 H    7.12617900   12.39089700  -29.91840800
24
-38.68097770699
 N    6.92819100   11.52621600  -30.52363500
 C    6.71239200   10.07486600  -30.60101600
 C    6.10465100    9.76976400  -32.02488000
 O    5.76208900   10.80038600  -32.65200300
 O    6.01612600    8.59364400  -32.37453500
 C    6.40573200   12.15527700  -29.29128500
 C    7.14002100   11.69862100  -28.02126800
 O    8.42790200   12.24830500  -27.88202900
 C    8.32359400   11.92749100  -30.81348000
 C    8.74987900   11.57091900  -32.24242200
 O    8.04236400   12.31724000  -33.20779600
 H    5.97449500    9.74562100  -29.87084700
 H    7.62705000    9.50294000  -30.46506300
 H    5.35036600   11.89696300  -29.20227100
 H    6.49483100   13.23741900  -29.40077300
 H    7.27921800   10.61574400  -28.03603200
 H    6.51506500   11.94839000  -27.15779100
 H    8.36737100   13.17192700  -27.60400900
 H    8.99054100   11.45851200  -30.09033700
 H    8.38708600   13.01173900  -30.71271800
 H    8.64403300   10.49666600  -32.43295600
 H    9.80070000   11.84224600  -32.36465200
 H    7.16177400   11.91961100  -33.33577600
 H    6.34796700   11.84135200  -31.35300300
24
-38.68096375209
 N    6.91012500   11.34104000  -30.60266700
 C    6.90744200   10.05401100  -29.89410600
 C    6.33622600   10.28148300  -28.44185300
 O    5.84839900   11.41808100  -28.25703200
 O    6.41219000    9.33907300  -27.65056300
 C    8.22806900   12.01053000  -30.56719400
 C    8.67479900   12.35549500  -29.13946800
 O    7.84632800   13.32721900  -28.54554600
 C    6.35488400   11.26919800  -31.97074400
 C    4.83049500   11.21701300  -31.91635400
 O    4.41045000   12.41101000  -31.28502800
 H    7.90280700    9.62029500  -29.82695400
 H    6.24723600    9.33762500  -30.38039400
 H    8.14639900   12.94875200  -31.11776900
 H    8.96613900   11.36265300  -31.04103400
 H    9.67090600   12.80109000  -29.18933500
 H    8.72610500   11.45798900  -28.51192200
 H    7.02339200   12.89851000  -28.24337000
 H    6.76353900   10.40094700  -32.48586000
 H    6.63325400   12.18024000  -32.50138900
 H    4.48449700   10.34253700  -31.35137500
 H    4.43940400   11.15477700  -32.93816700
 H    3.44995400   12.42933200  -31.20328100
 H    6.25045500   11.92158200  -30.02076900
24
-38.68095944248
 N    6.68731800   11.75789500  -30.62982200
 C    7.93275900   10.99259600  -30.77701000
 C    8.41135900   10.53590200  -29.34534500
 O    7.76601100   11.04776500  -28.40429100
 O    9.35756300    9.74753100  -29.28990900
 C    6.67244900   13.02542800  -31.38993900
 C    7.50226000   14.08104000  -30.66448100
 O    6.89925400   14.26485700  -29.39823900
 C    5.48038400   10.94089100  -30.87742500
 C    5.34045500    9.78126200  -29.88103600
 O    5.11004700   10.23646400  -28.56830700
 H    8.72880900   11.60960000  -31.19068300
 H    7.80509900   10.11802900  -31.41125100
 H    5.64458900   13.38733600  -31.43142300
 H    7.04483600   12.85160500  -32.39857700
 H    7.48524900   15.00996700  -31.24560900
 H    8.54337600   13.75498500  -30.54891300
 H    7.39705900   14.90587200  -28.87788300
 H    5.51926800   10.55312300  -31.89582000
 H    4.60634100   11.58203000  -30.75480400
 H    6.21697000    9.12349100  -29.91187700
 H    4.45880000    9.19731800  -30.15479300
 H    5.95531100   10.53822900  -28.18545400
 H    6.69331600   12.00223400  -29.60394100
24
-38.68070252912
 N    6.94249800   11.74957900  -30.76354000
 C    7.66371600   10.62084400  -31.36437200
 C    8.31455200    9.78193200  -30.19643500
 O    8.27612900   10.35095600  -29.08287100
 O    8.79478200    8.68445100  -30.48472100
 C    7.17867100   13.06036000  -31.40171300
 C    7.04669300   14.17741100  -30.35501900
 O    7.82254900   13.89163800  -29.21331700
 C    5.50031200   11.46966800  -30.59339500
 C    5.23200200   10.31503700  -29.61839500
 O    5.61363200   10.63312900  -28.30070300
 H    8.48367600   10.96138400  -31.99493900
 H    7.01443000    9.97794900  -31.95422000
 H    6.47065800   13.20786200  -32.21670400
 H    8.19343800   13.06828400  -31.80068600
 H    6.02014300   14.26032500  -29.99367000
 H    7.32857500   15.13169400  -30.80893000
 H    8.75721200   14.05917700  -29.39059200
 H    5.07193100   11.23477100  -31.56848100
 H    5.02566800   12.36038500  -30.18204600
 H    5.72561600    9.39423900  -29.95164300
 H    4.15456900   10.13761700  -29.58417200
 H    6.58089000   10.54006900  -28.22046100
 H    7.36975200   11.79067500  -29.79377700
24
-38.68065691054
 N    6.86279600   11.61417400  -30.75000400
 C    7.45078600   10.35966600  -30.26214500
 C    7.32351200   10.36127500  -28.69063500
 O    6.78017200   11.39982100  -28.23671600
 O    7.74883400    9.38885400  -28.07181000
 C    7.83677300   12.52672100  -31.37897900
 C    8.83620500   13.05824400  -30.33967100
 O    8.19379800   13.80006400  -29.32546400
 C    5.62369800   11.42863700  -31.52921500
 C    4.49206200   10.89271100  -30.63818800
 O    4.17399000   11.78993500  -29.59651700
 H    8.50428500   10.27311100  -30.51956900
 H    6.93256100    9.48500100  -30.64917900
 H    7.29180600   13.38020100  -31.78408800
 H    8.36173500   12.00940500  -32.18166500
 H    9.51492900   13.75497100  -30.83585700
 H    9.42921100   12.24669600  -29.90498700
 H    7.79924100   13.20390400  -28.66835500
 H    5.80838900   10.74713400  -32.35930300
 H    5.31363900   12.40147300  -31.91257100
 H    4.73743400    9.90535100  -30.23267200
 H    3.58727500   10.80325900  -31.24284100
 H    4.81764300   11.70764000  -28.87353100
 H    6.57482300   12.06835900  -29.83373500
24
-38.67967815803
 N    6.84299500   11.61120100  -30.59545300
 C    7.70878000   10.52359700  -31.07210500
 C    9.06585100   10.66571800  -30.28368800
 O    8.99604300   11.46189100  -29.31861400
 O   10.03271900   10.00268000  -30.66404100
 C    6.86103100   12.78931300  -31.48914200
 C    6.59512000   14.09465400  -30.74204900
 O    5.23549400   14.17043700  -30.36425400
 C    5.46923600   11.20277800  -30.24170400
 C    5.43375800   10.16034100  -29.11816900
 O    5.63111100    8.83671900  -29.57134600
 H    7.88873200   10.55793600  -32.14313200
 H    7.29662100    9.55094700  -30.80325200
 H    6.11067400   12.65060400  -32.26923300
 H    7.85238900   12.85866700  -31.93656500
 H    6.85104400   14.92228500  -31.41290600
 H    7.24753500   14.14466700  -29.85948400
 H    5.04533200   15.04151200  -29.99404200
 H    4.99471800   10.80196300  -31.13964200
 H    4.93464900   12.09837600  -29.92367800
 H    4.48152600   10.23956700  -28.58572300
 H    6.24196300   10.35312100  -28.40711400
 H    4.82785000    8.51913400  -30.00761900
 H    7.39080500   11.87561900  -29.71805000
24
-38.67966213036
 N    6.64197500   11.91682300  -31.39929800
 C    7.97240800   12.13201400  -31.98503300
 C    8.92497800   12.49973200  -30.78468200
 O   10.04510800   12.94335300  -31.04504400
 O    8.41309900   12.28101300  -29.66220800
 C    5.77030600   13.10711800  -31.49947600
 C    4.76838300   13.19172600  -30.34983100
 O    3.77062300   12.20233100  -30.50028400
 C    5.95773100   10.68760200  -31.84667600
 C    6.73821300    9.41729400  -31.48991800
 O    7.75039800    9.09942700  -32.42293900
 H    7.98804800   12.91724900  -32.73583600
 H    8.36264600   11.20960300  -32.41550500
 H    5.23989800   13.07635700  -32.45252300
 H    6.40151300   13.99449000  -31.45528200
 H    4.31957300   14.19128900  -30.36865100
 H    5.30259700   13.06520400  -29.39831800
 H    3.08978100   12.31642600  -29.82520000
 H    5.82140100   10.75190400  -32.92828400
 H    4.98121600   10.66417500  -31.36201200
 H    6.03946100    8.58167700  -31.39105900
 H    7.24936200    9.55253600  -30.53254100
 H    7.34930300    8.73046300  -33.22244900
 H    6.93280900   11.82774900  -30.37607000
24
-38.67939077474
 N    6.94883200   11.78156900  -30.33599900
 C    6.61667100   12.85573500  -29.39181200
 C    7.77646600   13.92376600  -29.51598800
 O    8.54023800   13.71103800  -30.48383300
 O    7.81074800   14.83662200  -28.69010200
 C    7.61745100   10.63367900  -29.68158600
 C    8.51128800    9.85735300  -30.64558600
 O    7.72765200    9.12716400  -31.56856800
 C    5.84378500   11.38253400  -31.23399000
 C    4.64420100   10.76777800  -30.50322300
 O    4.87720900    9.47139500  -30.00561000
 H    6.53711000   12.51332400  -28.36341700
 H    5.69428000   13.36203800  -29.67235400
 H    6.85293800    9.97577400  -29.26451100
 H    8.25028400   11.02481800  -28.88528300
 H    9.12771000    9.17734900  -30.04793800
 H    9.17298800   10.55985400  -31.17206600
 H    8.29101100    8.52609000  -32.07189900
 H    6.24377500   10.65538700  -31.94267500
 H    5.51243600   12.26976400  -31.77297100
 H    3.79676300   10.75955700  -31.19967300
 H    4.36588200   11.36709600  -29.63393200
 H    5.12002200    8.88655100  -30.73831400
 H    7.70294800   12.28932100  -30.89695600
24
-38.67938665469
 N    6.99197900   11.45028100  -30.22661200
 C    6.79332600   11.25273700  -28.78550100
 C    8.07812200   11.84708700  -28.08010600
 O    8.22758000   11.63005600  -26.87705200
 O    8.80813500   12.50208300  -28.85677600
 C    7.52005200   10.24089700  -30.89872700
 C    8.31056200   10.57889300  -32.16049200
 O    7.43930200   11.00993500  -33.18704700
 C    5.84566400   12.06203600  -30.93250800
 C    4.58122900   11.19504300  -30.92561500
 O    4.65571700   10.06249100  -31.75904800
 H    6.66724200   10.20948800  -28.50848300
 H    5.94289500   11.82569800  -28.41872900
 H    6.68310500    9.58405000  -31.14284800
 H    8.19734100    9.74252700  -30.20555600
 H    8.84473800    9.67416200  -32.46953400
 H    9.04908500   11.35927500  -31.92786900
 H    7.92019500   11.06863700  -34.02189400
 H    6.15332100   12.24074400  -31.96424700
 H    5.62451500   13.01402000  -30.45030800
 H    3.73859200   11.83068100  -31.22425600
 H    4.37856600   10.80729200  -29.92524000
 H    4.82188100   10.34624400  -32.66991900
 H    7.80023000   12.14680500  -30.18422500
24
-38.67938546209
 N    6.78197000   11.83691200  -30.33977000
 C    6.68695900   11.06771100  -29.09292200
 C    5.93489900    9.72569700  -29.46123500
 O    5.89269400    8.83664300  -28.61020100
 O    5.44350700    9.73633300  -30.61176100
 C    6.33895300   13.24383400  -30.23508200
 C    7.20436600   14.09606100  -29.29931400
 O    8.47521700   14.40988400  -29.81804600
 C    8.09481700   11.68274300  -31.00694600
 C    8.00549000   11.89567600  -32.51628400
 O    7.79529100   13.26232900  -32.81059300
 H    6.07032800   11.57837300  -28.35485600
 H    7.65499500   10.84102100  -28.65408600
 H    5.31280000   13.24531000  -29.86804800
 H    6.36594100   13.67060500  -31.23917700
 H    7.39444900   13.57312300  -28.35976800
 H    6.64940400   15.01480700  -29.07371800
 H    8.37201700   14.89711800  -30.64858600
 H    8.43989700   10.66339200  -30.83575500
 H    8.79545000   12.39486200  -30.56698200
 H    7.18704000   11.28339800  -32.92107500
 H    8.94854700   11.55258900  -32.95483400
 H    7.90255500   13.41283600  -33.75802400
 H    6.08058200   11.28227700  -30.92430800
24
-38.67938099518
 N    6.74069400   11.71735300  -30.24907500
 C    7.02496400   11.32977800  -31.63687200
 C    8.29033000   10.39226500  -31.64073900
 O    8.52662000    9.77121800  -32.68282000
 O    8.92869400   10.38022000  -30.56839400
 C    6.04858300   13.01223500  -30.10120500
 C    6.91916500   14.20041800  -30.53059200
 O    7.01601500   14.36136200  -31.92869400
 C    6.07780800   10.62799700  -29.49839300
 C    6.49606300   10.69991200  -28.01995000
 O    7.86208100   11.02248700  -27.88940600
 H    7.28263600   12.20861600  -32.22910900
 H    6.18263900   10.81615900  -32.09595700
 H    5.79857500   13.13947700  -29.04865900
 H    5.13341500   12.97605600  -30.69540200
 H    7.94263100   14.05320700  -30.17538200
 H    6.52381000   15.11031200  -30.06903900
 H    6.19735500   14.74547800  -32.27176400
 H    6.42470400    9.68285400  -29.91917000
 H    4.99672700   10.69901000  -29.60750100
 H    6.26312800    9.74583700  -27.53510200
 H    5.96667700   11.49444000  -27.49026200
 H    8.40736500   10.38222900  -28.37331800
 H    7.69326700   11.76353500  -29.81179600
24
-38.67935567385
 N    6.76964600   11.61843000  -30.50430600
 C    7.72823500   10.90863800  -31.36063300
 C    8.90563400   11.90681900  -31.67497100
 O    8.91702300   12.92242600  -30.94783200
 O    9.68468700   11.60161200  -32.58332100
 C    5.84701300   12.46112500  -31.29523100
 C    5.37901400   13.65935600  -30.45237400
 O    6.43119100   14.19258600  -29.68141000
 C    6.07027100   10.77459000  -29.51798200
 C    7.02549500   10.15167800  -28.49144200
 O    7.71499800    9.01740800  -28.96957400
 H    7.27656900   10.55747800  -32.28561700
 H    8.16658700   10.06527800  -30.82632400
 H    4.99940500   11.86908600  -31.63804100
 H    6.40550200   12.82999300  -32.15751100
 H    4.61743700   13.36714500  -29.72699200
 H    4.94775200   14.41492800  -31.11782800
 H    7.15417100   14.48944100  -30.25324900
 H    5.53270500    9.99411200  -30.06025900
 H    5.36166500   11.40515400  -28.98269700
 H    6.46016800    9.89938900  -27.58920300
 H    7.79670100   10.87759900  -28.21974400
 H    7.11372300    8.26031000  -29.00524900
 H    7.38983500   12.32170200  -30.01929200
24
-38.67909014878
 N    6.80162800   11.64658600  -30.23559300
 C    7.00364700   13.07973800  -29.99711400
 C    6.13114300   13.85552200  -31.06470700
 O    5.33254900   13.12606500  -31.68619800
 O    6.31598000   15.07044900  -31.17133400
 C    7.74346600   11.11456400  -31.24540800
 C    7.12213400    9.89470600  -31.94213800
 O    5.75371700   10.09213900  -32.22075200
 C    6.70365600   10.82165000  -29.01458000
 C    8.00432600   10.79105600  -28.19829100
 O    9.00003200    9.95785900  -28.74712000
 H    8.04422700   13.38074800  -30.09302800
 H    6.63274100   13.37104700  -29.01542300
 H    8.68757000   10.85012300  -30.76988600
 H    7.90642300   11.90318500  -31.98183500
 H    7.15605300    9.01177700  -31.30229900
 H    7.69005000    9.67898200  -32.85310600
 H    5.63572800   10.83503800  -32.82905100
 H    6.42197000    9.81133600  -29.31359400
 H    5.90757300   11.23588700  -28.39593900
 H    7.76152400   10.48090300  -27.17735400
 H    8.44261100   11.79009600  -28.15338400
 H    8.79471100    9.03183300  -28.56294400
 H    5.87213300   11.64570700  -30.74642000
24
-38.67907449048
 N    7.05069500   11.74870400  -30.20293900
 C    8.41879300   11.82305700  -30.72983800
 C    8.53340700   10.74922600  -31.88452500
 O    7.53853600   10.00208100  -31.97486800
 O    9.57005000   10.74611300  -32.55419600
 C    6.96536700   11.63743100  -28.73223600
 C    7.18726400   10.18928600  -28.31048600
 O    6.14414800    9.43081900  -28.89266800
 C    6.17703200   12.80171500  -30.75899300
 C    4.69339600   12.46144500  -30.62616500
 O    4.24794900   12.77395300  -29.32109000
 H    9.15376300   11.55492700  -29.97269100
 H    8.66134000   12.80734800  -31.12287100
 H    5.95937600   11.93412700  -28.43111700
 H    7.69770500   12.29917600  -28.27192400
 H    7.15407600   10.12414000  -27.21708200
 H    8.16291700    9.82642500  -28.65965300
 H    6.25412800    8.49611800  -28.68295300
 H    6.41377700   12.90088500  -31.81836200
 H    6.38330400   13.73936400  -30.23959700
 H    4.54513700   11.39604500  -30.84483100
 H    4.13891800   13.05387300  -31.36298700
 H    3.30718600   12.57313000  -29.23917200
 H    6.72977800   10.82627000  -30.62263600
24
-38.67868813338
 N    6.94789600   11.71860700  -30.51706200
 C    6.88457200   10.35909500  -31.07287000
 C    6.58553900   10.52964200  -32.61074500
 O    6.39664200    9.51636200  -33.28420900
 O    6.57121800   11.72830000  -32.98125700
 C    5.80258100   12.06096100  -29.64560000
 C    5.80844300   11.31966200  -28.29971500
 O    6.72935600   11.84169900  -27.37101800
 C    8.24357100   12.09512700  -29.91333600
 C    9.42789200   11.85192400  -30.85629100
 O    9.92178700   10.53072300  -30.80341400
 H    6.09418400    9.75657800  -30.63358600
 H    7.83374600    9.83403900  -30.98129700
 H    4.89017600   11.81344300  -30.18849100
 H    5.82370700   13.13800700  -29.46970900
 H    6.09206200   10.27487700  -28.44302700
 H    4.79279400   11.34171400  -27.89208600
 H    6.39819500   12.67278400  -27.00570400
 H    8.37610400   11.53145200  -28.98761900
 H    8.19468000   13.15813700  -29.67675700
 H   10.22675800   12.56190700  -30.62135200
 H    9.11915300   12.01545400  -31.89283900
 H   10.39802300   10.39910900  -29.97092300
 H    6.83340800   12.25621300  -31.44335200
