20
-61.32626493775
 C   15.68229900   16.19570900   22.84270200
 N   16.94269800   16.40573500   23.34681500
 C   18.04383600   16.81591800   22.60276000
 O   19.13541900   16.95235600   23.17223100
 C   17.72537700   17.02246600   21.23421400
 C   18.46384500   17.43271200   20.08137400
 C   19.91666000   17.78637000   20.06676300
 N   20.70839600   16.78591100   20.76737700
 C   17.58582600   17.40386200   19.03788700
 N   16.34493800   17.01109100   19.48060100
 C   16.40928000   16.77295700   20.80493600
 N   15.38360900   16.36480900   21.57933800
 N   14.72706000   15.81193100   23.69783500
 C   20.97133100   15.57272900   20.24370600
 O   21.41761500   14.64845400   20.91131000
 C   20.61566800   14.75770800   16.71523300
 C   21.02642300   14.34900400   18.13059100
 C   20.18133800   13.17115500   18.61401700
 C   22.51775500   14.02024700   18.18339300
 O   20.74016900   15.53286100   18.92770300
20
-61.32626260993
 C   16.25178600   16.41759100   24.20324500
 N   17.40076500   17.14901000   24.02611900
 C   18.02257700   17.37838700   22.80344600
 O   19.04920400   18.07102500   22.77359900
 C   17.34501900   16.74964200   21.72533300
 C   17.55716300   16.67056700   20.31432200
 C   18.68587700   17.31184900   19.57218400
 N   18.85883200   18.70020900   19.97354900
 C   16.52533400   15.93038900   19.81606400
 N   15.69426100   15.53732600   20.83821200
 C   16.17081100   16.02534500   21.99992400
 N   15.61104400   15.84816500   23.21394900
 N   15.79319100   16.27397000   25.45303800
 C   18.01304400   19.67663900   19.58978200
 O   18.00183900   20.78327600   20.11370300
 C   17.05952600   21.41662400   17.33012300
 C   16.31555000   20.21954100   17.92013400
 C   15.25275600   20.66705200   18.92319000
 C   15.68402100   19.37777500   16.81055300
 O   17.25176800   19.30438200   18.55635500
20
-61.32624180817
 C   13.78840900   17.54763500   22.04275000
 N   14.67042100   18.59031000   22.18817200
 C   16.02111700   18.54798500   21.85973000
 O   16.71554000   19.55623800   22.04919100
 C   16.41069200   17.28784300   21.33327800
 C   17.63913300   16.73267200   20.85866000
 C   18.94877100   17.45234100   20.79955700
 N   19.22004400   18.15581600   22.04429500
 C   17.36344700   15.44290900   20.51037600
 N   16.03387200   15.17185900   20.73090300
 C   15.44134700   16.27353700   21.23084600
 N   14.14155400   16.37714700   21.57483900
 N   12.51029000   17.76340300   22.37890800
 C   19.60323700   17.52206600   23.16971200
 O   19.59019300   18.06321700   24.26808700
 C   19.50704400   15.16834100   25.03864300
 C   20.57670800   15.43411900   23.97982100
 C   21.81963600   16.07441200   24.59607100
 C   20.94266400   14.13999600   23.25188300
 O   20.03922000   16.28217600   22.92577200
20
-61.32624106801
 C   16.00136500   16.09185700   23.18155300
 N   16.80235500   17.14535400   23.54951700
 C   17.72554000   17.77561300   22.72196000
 O   18.40348000   18.70622200   23.17939300
 C   17.74660900   17.22224700   21.41427400
 C   18.48341700   17.49227000   20.21979400
 C   19.51755800   18.56105800   20.06398600
 N   20.45753500   18.55166700   21.17490100
 C   18.06321200   16.57756000   19.29923600
 N   17.10079500   15.76551100   19.85108200
 C   16.89793700   16.13700700   21.12998700
 N   16.02747300   15.56250400   21.98441900
 N   15.16319200   15.59775100   24.10005000
 C   21.42531500   17.62322400   21.30266100
 O   22.05165100   17.46230800   22.34251300
 C   24.06429700   16.61631400   20.27692100
 C   22.70067700   15.97068900   20.03493300
 C   22.57980600   15.49427800   18.58686600
 C   22.45695900   14.81219100   21.00151100
 O   21.64180300   16.96166000   20.16156600
20
-61.32623929905
 C   15.89425000   17.30877300   23.05437700
 N   17.17294100   16.98406600   23.43668200
 C   18.24274700   16.79188200   22.56932400
 O   19.35491800   16.51725300   23.04093500
 C   17.87115400   16.95151400   21.20788800
 C   18.56301500   16.86577400   19.96018700
 C   20.01199500   16.53552600   19.79425400
 N   20.83763500   17.30671900   20.71166500
 C   17.64486500   17.16208800   18.99588300
 N   16.42312400   17.41425100   19.57344900
 C   16.53980600   17.29495400   20.91019900
 N   15.54621000   17.47655400   21.80372900
 N   14.97153000   17.43424800   24.01653100
 C   21.10986300   18.61260300   20.52275000
 O   21.58573400   19.32077500   21.40107500
 C   20.71318700   20.34051700   17.34496100
 C   21.15646400   20.35115700   18.80846600
 C   22.65652600   20.62231700   18.91415800
 C   20.35028800   21.37727800   19.60410700
 O   20.85175900   19.00490100   19.27115200
20
-61.32623199343
 C   15.77371600   17.31079900   22.93464200
 N   17.03224300   17.13474400   23.45619500
 C   18.18837200   16.94322600   22.70782800
 O   19.27042900   16.81545800   23.29768900
 C   17.93252500   16.92524200   21.31106800
 C   18.74055000   16.76465000   20.14310900
 C   20.21832800   16.53590600   20.13700000
 N   20.90021900   17.46816400   21.02213900
 C   17.89572300   16.88067500   19.07839200
 N   16.61112700   17.09154500   19.52009000
 C   16.61275100   17.12468100   20.86676400
 N   15.53075600   17.31678400   21.64833000
 N   14.76125400   17.46763600   23.79598300
 C   21.12755800   18.75498200   20.69657500
 O   21.47176000   19.59265700   21.52074600
 C   20.33744400   21.33507800   19.36129600
 C   21.27299200   20.27135200   18.78760400
 C   20.99033600   20.05494500   17.30039200
 C   22.73808600   20.64570900   19.00732100
 O   20.98717000   18.97504000   19.38523900
20
-61.3262180161
 C   15.88289800   16.19818000   23.63559300
 N   17.23259900   16.40537500   23.78203600
 C   18.10075000   16.77111500   22.76129600
 O   19.29580300   16.95648400   23.03576500
 C   17.44944500   16.88846100   21.50462100
 C   17.86173900   17.21875500   20.17534800
 C   19.25874000   17.50243700   19.71824600
 N   19.98469600   18.32345900   20.66610000
 C   16.73214000   17.19069900   19.41041600
 N   15.64790400   16.85463300   20.18457300
 C   16.05905500   16.66916900   21.45301800
 N   15.26601200   16.32929900   22.48840700
 N   15.18621200   15.84283600   24.72084300
 C   20.17349600   19.63770400   20.47915100
 O   19.96637300   20.22294700   19.42517200
 C   22.16832400   21.87186700   20.62750000
 C   21.05461400   21.60123900   21.63870400
 C   21.56888200   21.79149600   23.06629100
 C   19.84405400   22.49847600   21.37990000
 O   20.66131100   20.19942100   21.59664800
20
-61.32621056513
 C   16.02284400   15.69372800   23.01815600
 N   17.08427100   15.39617900   22.19916200
 C   17.67864500   16.27977000   21.30761000
 O   18.61278600   15.87191100   20.60117800
 C   17.09064500   17.57224500   21.34308600
 C   17.31721900   18.80962300   20.66250800
 C   18.39928600   19.09946900   19.66942800
 N   18.60565300   17.99864400   18.75122400
 C   16.37381200   19.67758700   21.13038100
 N   15.58276600   19.05409600   22.06485800
 C   15.99789300   17.78139100   22.20706000
 N   15.45606000   16.87330500   23.04261000
 N   15.54630800   14.71666200   23.79941900
 C   18.16788400   18.02569900   17.48482300
 O   17.74875400   19.02620300   16.91907700
 C   16.50731000   16.86232100   15.25122100
 C   17.98621800   16.58298900   15.51956800
 C   18.29741000   15.09951800   15.31645700
 C   18.88123500   17.44512700   14.62957100
 O   18.29727200   16.81276000   16.92371700
20
-61.32620718148
 C   15.70974800   16.15206500   23.55698400
 N   16.81456000   16.95855900   23.68006500
 C   17.63204100   17.36029800   22.63164900
 O   18.58367700   18.11694600   22.87661900
 C   17.22514800   16.82094400   21.38235800
 C   17.70292000   16.90539500   20.03682800
 C   18.93072400   17.62062700   19.56669100
 N   19.09533400   18.90401600   20.21739600
 C   16.83534800   16.17262200   19.28023000
 N   15.85474400   15.63379100   20.07760600
 C   16.07101200   16.01395000   21.35083800
 N   15.30805700   15.67102200   22.40764000
 N   15.03049000   15.85348000   24.66989900
 C   18.86556200   20.06608200   19.59164800
 O   18.68568500   20.17898200   18.38679000
 C   18.90351900   23.26238700   21.34196000
 C   18.78096200   22.46737800   20.04124700
 C   17.41671100   22.70553700   19.39365900
 C   19.91658900   22.82810400   19.08387200
 O   18.90192000   21.08079200   20.47034800
20
-61.32620693956
 C   15.65063300   16.32232400   23.40141900
 N   16.75292700   17.07312900   23.72934800
 C   17.72961600   17.49244100   22.83519400
 O   18.69479100   18.13895400   23.26930400
 C   17.45975200   17.08838400   21.50078200
 C   18.10996800   17.25872700   20.23829100
 C   19.35085200   18.05219600   19.97199700
 N   20.35084900   17.86052100   21.00229300
 C   17.34915800   16.58632400   19.32668400
 N   16.26364400   16.01735000   19.94787400
 C   16.31145200   16.30848100   21.26143500
 N   15.40617200   15.91806900   22.18038800
 N   14.80322000   15.99957600   24.38467100
 C   21.44597100   17.11234900   20.81266000
 O   21.81480800   16.68986500   19.72538200
 C   24.41700200   16.96738600   21.20041500
 C   23.36993300   16.23551200   22.03968900
 C   23.20759700   14.78684300   21.57873100
 C   23.73914800   16.28834800   23.52276200
 O   22.09277300   16.93277600   21.97571900
20
-61.32619546644
 C   15.90696000   16.23516500   23.74070600
 N   17.01208100   17.05006900   23.76929000
 C   17.76135600   17.42054100   22.65983600
 O   18.72041700   18.19009700   22.82056000
 C   17.28322500   16.83651700   21.45675400
 C   17.67823400   16.87701700   20.08270200
 C   18.86856000   17.58508200   19.51475600
 N   19.05761900   18.89303700   20.10789000
 C   16.77222100   16.11387100   19.40544600
 N   15.84568600   15.59733300   20.27873500
 C   16.13536600   16.02275800   21.52276100
 N   15.44009900   15.71255800   22.63487100
 N   15.29391200   15.97685800   24.90113200
 C   18.72442700   20.02551300   19.47297800
 O   18.43476200   20.09325500   18.28639200
 C   17.15115100   22.59513600   19.33772900
 C   18.57868400   22.43435700   19.86082800
 C   19.60393900   22.81028000   18.79118400
 C   18.78675800   23.27469700   21.12143100
 O   18.79813800   21.06821200   20.31538100
20
-61.32618955976
 C   15.11260700   17.93242600   23.53071100
 N   16.44903700   18.16474400   23.74539300
 C   17.46863000   17.84749700   22.85730100
 O   18.64006600   18.08387700   23.18888400
 C   16.98602400   17.26671800   21.65440300
 C   17.58598900   16.78095800   20.45027200
 C   19.03931000   16.82375900   20.09434800
 N   19.88574600   16.49414100   21.22261500
 C   16.56285200   16.30647800   19.68211100
 N   15.36595800   16.47661600   20.33504700
 C   15.59915500   17.05435300   21.52848000
 N   14.65710600   17.37323300   22.43809000
 N   14.25559100   18.30063800   24.48941700
 C   20.49718000   15.30759900   21.34171800
 O   20.57795400   14.47819800   20.44602300
 C   22.26204100   14.32131300   24.37371000
 C   21.84239000   14.02843400   22.93257700
 C   23.06988800   13.92474100   22.02769000
 C   20.99947000   12.75464200   22.86731200
 O   21.03790800   15.18549500   22.56453900
20
-61.32573062856
 C   15.48899300   17.45499300   21.96000800
 N   16.71269600   18.07505600   22.01957100
 C   17.90854400   17.53708500   21.55026000
 O   18.95069600   18.19119500   21.67532400
 C   17.73254000   16.24226800   20.99183500
 C   18.60286100   15.28578600   20.38471100
 C   20.06316900   15.49068800   20.13785000
 N   20.31522800   16.79099700   19.52781300
 C   17.81944000   14.22309100   20.04112300
 N   16.51605100   14.46568500   20.40490500
 C   16.44268300   15.68313200   20.97791900
 N   15.31945200   16.26109100   21.45169600
 N   14.42726700   18.12845100   22.42561400
 C   19.70651100   17.15676200   18.37884900
 O   19.64401500   18.32029600   18.00493600
 C   19.39473700   16.86502600   15.37628200
 C   18.51180600   16.24565300   16.45845200
 C   17.25481400   17.08148300   16.69904700
 C   18.13635300   14.80940900   16.09146500
 O   19.25507300   16.10000700   17.70066500
20
-61.32572121218
 C   15.40813500   16.67599800   23.34701900
 N   16.37814700   17.62428400   23.56286600
 C   17.46023900   17.86574400   22.72602100
 O   18.27671900   18.74333200   23.04476100
 C   17.46701900   17.02150800   21.58447800
 C   18.32208800   16.86162100   20.44973700
 C   19.53015800   17.68224200   20.12278300
 N   20.35344200   17.90640400   21.29589000
 C   17.79150600   15.83966400   19.71716600
 N   16.65672400   15.36277900   20.32791400
 C   16.44320300   16.06318500   21.45777200
 N   15.41733900   15.87503000   22.31166800
 N   14.41745300   16.58552100   24.24159600
 C   21.55558100   17.37053800   21.53466200
 O   22.14145800   17.51858300   22.60118400
 C   23.48821400   15.45507200   19.11261600
 C   23.35761200   16.08299700   20.50104200
 C   23.42582900   15.00682100   21.58422500
 C   24.43345700   17.14787200   20.71125400
 O   22.03707900   16.69523900   20.48065100
20
-61.32475086571
 C   16.57708400   16.94786200   23.39196000
 N   17.86142300   17.39860600   23.21641900
 C   18.53918800   17.45156800   21.99765900
 O   19.70316200   17.86070800   21.98248700
 C   17.73469900   16.99345300   20.91813000
 C   17.92879800   16.84733700   19.51012200
 C   19.14689100   17.22968000   18.73689100
 N   19.26713500   18.67857600   18.65709000
 C   16.76103300   16.33847000   19.01616500
 N   15.86251600   16.15450600   20.03673000
 C   16.43026500   16.54761600   21.19454700
 N   15.83512500   16.51433800   22.40449500
 N   16.08276000   16.94549200   24.63599700
 C   20.28789200   19.41409700   19.13383200
 O   20.21156500   20.63451700   19.21890700
 C   22.20714600   19.98053600   21.30588800
 C   22.55668600   19.26904700   19.99988700
 C   23.21725700   20.22061700   19.00279300
 C   23.45310400   18.06149600   20.27597400
 O   21.36384900   18.68033700   19.41004100
20
-61.32473104137
 C   15.51402000   15.44799600   23.55060000
 N   16.41516600   16.43212500   23.87144500
 C   17.19261100   17.14399800   22.95686300
 O   17.95194300   18.02096900   23.37762900
 C   16.96251000   16.72328100   21.61818900
 C   17.47889400   17.10422200   20.34152400
 C   18.54264300   18.11838300   20.08258100
 N   19.82493100   17.65739200   20.59442600
 C   16.83911900   16.32057900   19.42349200
 N   15.95321100   15.48605400   20.05740800
 C   16.01529900   15.71075300   21.38503000
 N   15.28874700   15.06425800   22.31963800
 N   14.82902200   14.88080000   24.55178800
 C   20.57076600   18.27620900   21.52773400
 O   21.52707500   17.71955200   22.05470800
 C   20.00743900   21.65542300   22.71976100
 C   20.83714100   20.37101800   22.73604000
 C   22.28474600   20.65439000   22.33542000
 C   20.75691400   19.70318900   24.10762400
 O   20.19779500   19.53881000   21.72781200
20
-61.32473013636
 C   15.54022200   16.93398600   23.37104800
 N   16.87198900   16.76533100   23.65560400
 C   17.90261300   16.74378800   22.71472300
 O   19.06332700   16.60274800   23.10864800
 C   17.41781200   16.90338800   21.38729600
 C   18.02320600   16.95176700   20.09399200
 C   19.47295100   16.77706300   19.78445900
 N   19.86996100   15.38753300   19.96246200
 C   17.00364600   17.13812500   19.20380900
 N   15.80767700   17.21602300   19.87197800
 C   16.03572800   17.07294000   21.19286200
 N   15.08817300   17.08993800   22.15265300
 N   14.68271200   16.96345500   24.39981300
 C   20.79726500   14.93440200   20.82519800
 O   20.91823200   13.73803300   21.06350300
 C   23.70369500   14.77917700   21.71150900
 C   22.59244800   15.64423200   22.30552800
 C   21.96725900   14.98679800   23.53470900
 C   23.11465700   17.03770500   22.65707800
 O   21.57487300   15.90563900   21.29901700
20
-61.32472851375
 C   16.26766400   16.72190700   23.51692700
 N   17.61391700   16.98832300   23.52010200
 C   18.41556800   17.11078300   22.38426400
 O   19.61997300   17.33655100   22.52886700
 C   17.67262400   16.93637700   21.18426500
 C   17.99153400   16.95752800   19.79171700
 C   19.32641000   17.24736800   19.18998800
 N   19.66852500   18.65241600   19.35793500
 C   16.82253200   16.70801400   19.13010900
 N   15.80440900   16.52631600   20.03200300
 C   16.29671400   16.66313700   21.27951300
 N   15.57936800   16.55206800   22.41631700
 N   15.64849800   16.62735800   24.69978100
 C   20.73441600   19.13199900   20.02420400
 O   20.83301300   20.32215100   20.30017100
 C   23.74965700   19.45849300   20.24066800
 C   22.85916500   18.49228800   21.02124000
 C   23.53308700   17.12730200   21.16595300
 C   22.49357500   19.05233800   22.39480700
 O   21.65550900   18.19937700   20.25781400
20
-61.32472808197
 C   14.66387300   15.45087400   22.90281300
 N   15.62338300   16.22355100   23.50746700
 C   16.67320600   16.86746600   22.85100000
 O   17.46086000   17.54737700   23.51429800
 C   16.65484100   16.62753000   21.44950400
 C   17.47150700   17.03164000   20.34874100
 C   18.71073900   17.86012400   20.42101700
 N   19.78107400   17.12455300   21.07881500
 C   16.91539200   16.46758600   19.23569300
 N   15.80045200   15.74724100   19.58366200
 C   15.62786300   15.82763300   20.91811100
 N   14.63363700   15.23660700   21.61183100
 N   13.73138200   14.89175200   23.68391300
 C   20.41368200   17.49264100   22.20803900
 O   21.14798000   16.71833100   22.81075400
 C   20.30733100   18.56972100   24.95665800
 C   20.75879500   19.35955100   23.72947000
 C   20.15770400   20.76545000   23.75061800
 C   22.28305600   19.42164700   23.63370200
 O   20.20953400   18.77172500   22.51676700
20
-61.32448926047
 C   15.46677600   16.60736200   23.43621600
 N   16.79564300   16.74925700   23.74658100
 C   17.83160200   16.90330100   22.82338600
 O   18.98119200   17.04934400   23.24936700
 C   17.36214400   16.87568200   21.48036100
 C   17.97113500   16.97476400   20.19027300
 C   19.42424300   17.11570800   19.87714300
 N   20.06526400   18.15357700   20.66192500
 C   16.95376300   16.89471300   19.28215300
 N   15.75500700   16.74410300   19.93266200
 C   15.97917800   16.73010300   21.26071900
 N   15.02504000   16.59766700   22.20438600
 N   14.59814900   16.49316600   24.44857300
 C   21.05139400   17.87074600   21.53788000
 O   21.68513300   16.82820400   21.53604900
 C   22.17924400   20.26340300   24.03373900
 C   22.34009700   18.91815200   23.32371700
 C   23.70799700   18.82480400   22.64767600
 C   22.12571200   17.76595500   24.30401500
 O   21.28822900   18.93266900   22.31669100
20
-61.3244691317
 C   15.71395100   15.56823700   22.98417200
 N   17.04737800   15.63327400   23.30006500
 C   18.03510500   16.24460300   22.52566600
 O   19.20381800   16.19838700   22.92060900
 C   17.50233600   16.83779200   21.34658200
 C   18.04328900   17.57596500   20.24775400
 C   19.45998000   18.00118000   20.04293500
 N   20.40259700   16.91733000   20.24440600
 C   16.99341900   17.84330400   19.41553300
 N   15.83624800   17.32328300   19.93783700
 C   16.12126200   16.71216600   21.10380400
 N   15.21951000   16.09296800   21.89253000
 N   14.90418000   14.90762500   23.82318900
 C   21.32246300   16.95237900   21.23055400
 O   21.64604500   17.96813100   21.82382200
 C   23.20382300   14.00670600   22.23543900
 C   22.94933800   15.51143600   22.33712900
 C   22.48651000   15.88252100   23.74514900
 C   24.19746400   16.29856700   21.93751600
 O   21.88394500   15.74621400   21.37259000
20
-61.3244667652
 C   16.55397400   17.12699600   23.48480900
 N   17.81244500   17.63460900   23.28201800
 C   18.47007200   17.70295400   22.05219400
 O   19.59294200   18.21468600   22.01384000
 C   17.69090200   17.15351000   20.99565600
 C   17.87711900   16.96390700   19.59047900
 C   19.08420600   17.29726300   18.77716300
 N   19.56372600   18.64419100   19.02115600
 C   16.72607400   16.39159400   19.12810400
 N   15.84425700   16.20888400   20.16321100
 C   16.40746000   16.66143100   21.30007700
 N   15.82317900   16.63874200   22.51524800
 N   16.06403000   17.15060900   24.73017300
 C   20.78251000   18.87895400   19.54858500
 O   21.68123900   18.05453300   19.58022000
 C   23.20976100   20.69505900   19.42201700
 C   22.10725600   20.70367400   20.48063000
 C   22.52341000   19.91603800   21.72175000
 C   21.73080000   22.13791800   20.85665000
 O   20.87694900   20.16056700   19.92198000
20
-61.32446197129
 C   15.66260400   17.24129600   23.31351300
 N   16.89758800   17.82154600   23.45717900
 C   17.91109700   17.81826900   22.49679400
 O   18.96498400   18.40817200   22.75299200
 C   17.53443800   17.11037400   21.32119100
 C   18.16902200   16.79518800   20.07880600
 C   19.56065500   17.13134100   19.65502700
 N   19.88950900   18.52652400   19.87638000
 C   17.25008100   16.09592700   19.34899400
 N   16.09055400   15.95225600   20.06817300
 C   16.24140600   16.55656700   21.26243900
 N   15.30049000   16.60810600   22.22707900
 N   14.79989700   17.34903700   24.33143500
 C   20.86124200   18.89880600   20.73518700
 O   21.72798400   18.14738800   21.15018800
 C   21.77084800   20.27072700   23.20909800
 C   21.75001500   20.89694800   21.81582000
 C   21.22350300   22.33180400   21.88056100
 C   23.13446800   20.85881000   21.16872800
 O   20.78544300   20.21486300   20.96456400
20
-61.32444770112
 C   15.32633500   16.33477800   23.34702800
 N   16.34102700   17.21498400   23.62635700
 C   17.33804700   17.61209300   22.73343200
 O   18.20571300   18.39496200   23.13173400
 C   17.18556100   17.00643800   21.45483400
 C   17.89383000   17.06477300   20.21375700
 C   19.08927500   17.89669600   19.88485200
 N   20.13029300   17.79882500   20.89019900
 C   17.24370400   16.21495100   19.36461800
 N   16.17179900   15.64318000   20.00251500
 C   16.11839200   16.10789300   21.26573200
 N   15.19107400   15.75766500   22.18018200
 N   14.44653700   16.06800300   24.31977700
 C   20.52179300   18.86996300   21.61047400
 O   20.28039800   20.02474100   21.29979200
 C   20.81000700   20.30519100   24.19321700
 C   21.88904900   19.43585300   23.54947400
 C   22.92077400   20.28812000   22.81049800
 C   22.56786000   18.55659400   24.60084400
 O   21.28914100   18.47553500   22.63341000
