42
-123.57580178447
 N   -6.28540800   -8.70881300    8.22852500
 C   -7.62109800   -8.56848300    8.49140000
 C   -8.32980900   -9.20310600    7.48755200
 C   -5.21066200   -8.21924900    9.07692300
 C   -8.17842900   -7.79340600    9.64023100
 C   -8.96534900   -6.54196800    9.22292400
 C   -7.90699500   -5.82727400    7.01517700
 C   -4.00136700   -7.75166500    8.27221800
 C  -12.02777000   -9.64719500    8.04091000
 C   -2.56343000  -10.70656700    4.71306300
 C   -1.49751300  -10.90564200    3.85379200
 C  -10.27655400   -8.90938400    6.01419700
 C   -8.86761600  -12.50798800    4.54375600
 C  -11.63441800   -8.94066900    5.76051700
 C   -2.92433900   -8.54296900    3.72563200
 C   -8.28266300  -12.25975400    3.31786700
 O   -5.32916300   -6.56777700    5.26454000
 C   -6.33543300   -6.36911800    4.52899600
 O   -6.71934500   -7.14389400    3.64072200
 C   -7.12418500   -5.05908500    4.75030700
 C   -7.21796000   -4.69778500    6.23619900
 O   -5.92822100   -4.42400500    6.75857200
 C   -8.12326000   -5.48209500    8.49393900
 O   -6.90235700   -5.31348800    9.18555500
 C   -9.77402400   -9.23997100    7.27378600
 C  -12.48630900   -9.30857300    6.78355900
 F  -13.83421000   -9.34024900    6.54112600
 C  -10.66601700   -9.61203300    8.27768700
 C   -4.82079700   -9.30871500   10.07664500
 C   -6.13126600   -9.41881000    7.07179100
 C   -7.37947800   -9.74273400    6.57697200
 C   -7.68617800  -10.59514200    5.43077100
 C   -8.56233800  -11.66834200    5.59719200
 F   -8.57638800  -13.08959500    2.26699300
 C   -7.42185000  -11.20125500    3.11065200
 C   -7.12896100  -10.36756500    4.17452100
 C   -4.84967800   -9.94623900    6.52770300
 O   -4.33872200  -10.96816500    6.98193400
 N   -4.38113300   -9.24287300    5.47720000
 C   -3.28465600   -9.51724700    4.65591100
 C   -1.85908400   -8.75227000    2.87266300
 C   -1.13916000   -9.93502800    2.93452400
