34
-97.44480788288
 C    7.12770100    0.54145200   17.37741700
 C    7.39402600    0.41403400   18.73778600
 C    8.17319600   -0.65637400   19.17292800
 C    8.67859400   -1.57058900   18.26659200
 C    8.40669900   -1.43630200   16.91604600
 C    7.62771700   -0.37662600   16.46613400
 C    5.88064800    1.90626400   21.83194800
 C    5.88546400    3.26729500   21.53073300
 C    6.38038700    3.68357600   20.29642100
 C    6.86321100    2.75565800   19.39543900
 C    6.86452100    1.39401900   19.69670700
 C    6.35957400    0.98098500   20.92837600
 C    5.42984000    4.21763600   22.57641300
 N    5.05609400    5.42688800   22.15735800
 C    4.69039800    6.52074600   23.02849100
 C    3.22051800    6.88495100   22.81324400
 C    5.59044400    7.75320600   22.79591300
 C    5.67125700    8.16149000   21.33839700
 O    6.01043500    9.43805900   21.23156600
 C    7.01934300    7.60420500   23.37722900
 C    7.30412200   -0.24316700   15.00118100
 N    6.08465500   -1.03054500   14.66784800
 C    7.96946800    5.29528300   23.56996400
 C    8.67755500    4.20921600   23.06156500
 C    9.24334400    4.28670700   21.79144900
 C    9.09154400    5.44184600   21.04644800
 C    8.37818800    6.51391600   21.55488000
 C    7.79939500    6.44890000   22.81816100
 C    8.80451500    2.98225200   23.86877400
 N    9.95274500    2.34060000   23.88106200
 N    7.76666900    2.56398300   24.54564500
 O    5.47778700    7.44710500   20.37570200
 O    5.43332300    3.89895500   23.77323800
 C    6.15265000    9.97938500   19.91680900
