16
-46.66760089255
 N  122.82575600  103.67704800  -46.62761600
 C  123.29316000  103.09752000  -44.51558700
 C  123.16628900  102.61644200  -45.84315700
 C  123.00204300  104.49521600  -44.55201500
 C  122.71569500  104.80602700  -45.85910400
 C  123.38666300  101.27928900  -46.17512600
 C  123.63874100  102.22112500  -43.48668200
 C  123.72832000  100.43176000  -45.13789900
 C  123.84460300  100.90727700  -43.83178800
Br  124.32706200   99.63447300  -42.43493600
 C  123.02230800  105.40748900  -43.36577400
 C  122.33113700  106.09974600  -46.48359500
 N  125.07328000  106.55312900  -44.09744000
 C  123.21274900  100.77357600  -47.57794600
 C  124.45205400  105.79438400  -42.98564100
 C  121.73527000  100.51188600  -47.88286500
16
-46.66759365195
 N  122.24379300  103.30998500  -46.43710100
 C  123.75426900  103.33872000  -44.78415400
 C  123.21838800  102.56492300  -45.84437300
 C  123.05437800  104.58354900  -44.78464000
 C  122.14545500  104.52577100  -45.81317600
 C  123.67523700  101.27833600  -46.13201300
 C  124.78086600  102.82178800  -43.99364600
 C  124.69262000  100.78929000  -45.33412800
 C  125.22223400  101.55643500  -44.29653300
Br  126.65844900  100.78225100  -43.22792800
 C  123.29592100  105.70504300  -43.82372200
 C  121.16080300  105.53249200  -46.29125800
 N  121.16418500  105.34945800  -42.64849000
 C  123.12694400  100.48266100  -47.28108300
 C  122.63370200  105.43243000  -42.47253700
 C  123.77866000  100.90953300  -48.59925100
16
-46.66752863483
 N  122.24833900  103.41627000  -46.30530800
 C  124.18737200  103.34177200  -45.18787000
 C  123.30313900  102.60424500  -46.01525900
 C  123.60711800  104.63460900  -45.01002300
 C  122.42884600  104.63994500  -45.71609400
 C  123.56868100  101.29121400  -46.40544000
 C  125.36837700  102.75523600  -44.73285200
 C  124.74491300  100.73318200  -45.94076400
 C  125.61283300  101.46232100  -45.12798400
Br  127.25426800  100.59289600  -44.53276600
 C  124.20672200  105.74028600  -44.19890400
 C  121.41862400  105.71444700  -45.90688000
 N  122.50776500  105.56493900  -42.42882200
 C  122.61004700  100.50856900  -47.25563700
 C  123.96391000  105.52911100  -42.70393900
 C  121.46129400   99.94674200  -46.41333300
16
-46.66751894997
 N  122.61624200  103.37464900  -46.51425200
 C  123.26016900  102.90669400  -44.42121000
 C  123.03603600  102.35856500  -45.70946100
 C  122.94403300  104.29704600  -44.50168100
 C  122.54852800  104.53848700  -45.79504300
 C  123.23970000  101.00694300  -45.98952100
 C  123.70229000  102.08732800  -43.38220900
 C  123.67906700  100.21725700  -44.94360500
 C  123.89709700  100.75978100  -43.67722100
Br  124.50886200   99.56384000  -42.26337100
 C  123.04246500  105.26832300  -43.36726700
 C  122.09782400  105.79609500  -46.44863100
 N  124.97712500  106.43357700  -44.34223200
 C  123.03335700  100.44355100  -47.36586000
 C  124.48713200  105.71593100  -43.14120800
 C  124.24055900  100.73285700  -48.26244300
16
-46.66751805351
 N  121.75296200  103.47679400  -46.61373200
 C  123.31879700  103.68832500  -45.02578000
 C  122.80985300  102.83661500  -46.04108600
 C  122.50160200  104.85953600  -45.02302900
 C  121.55495500  104.68429600  -46.00264400
 C  123.37397200  101.59237400  -46.32320400
 C  124.41479900  103.27802200  -44.26329800
 C  124.45921000  101.21309100  -45.55492100
 C  124.95170700  102.04601000  -44.55068900
Br  126.48308900  101.42568500  -43.51214000
 C  122.65265300  106.04425600  -44.11991700
 C  120.46086100  105.58711900  -46.44030900
 N  124.73049400  106.80791900  -45.19841900
 C  122.80152500  100.68530800  -47.37335400
 C  123.35042200  107.20510200  -44.82893000
 C  121.59860900   99.91185200  -46.82624000
16
-46.66751738001
 N  122.39172300  103.31596900  -46.35404500
 C  124.19690100  103.27757500  -45.02807700
 C  123.37820700  102.50028600  -45.88876000
 C  123.64740700  104.59553900  -45.01655800
 C  122.55191300  104.57542300  -45.84485800
 C  123.62607900  101.14982200  -46.13552700
 C  125.30233700  102.69081500  -44.40791600
 C  124.72482600  100.59434300  -45.50622500
 C  125.53495300  101.36194100  -44.66987200
Br  127.06789700  100.49530600  -43.82865500
 C  124.16915500  105.76689500  -44.24340300
 C  121.60491200  105.66316700  -46.19650700
 N  123.45966600  104.84704300  -42.07389300
 C  122.77275700  100.34927900  -47.07588400
 C  123.34413500  106.01462300  -42.98034100
 C  123.18776600  100.59300200  -48.52940100
16
-46.66750195705
 N  122.74407000  103.68142700  -47.21347500
 C  123.49006200  103.80675200  -45.10495700
 C  123.13744200  102.91937400  -46.15530300
 C  123.29212200  105.13124800  -45.60080200
 C  122.84605000  105.00750300  -46.89398500
 C  123.22257700  101.53336700  -46.02103900
 C  123.94118800  103.29343200  -43.88677600
 C  123.66794700  101.05310100  -44.80342800
 C  124.01928100  101.92612400  -43.77411900
Br  124.64902800  101.15857200  -42.09392000
 C  123.53136600  106.40394800  -44.84908700
 C  122.47592600  106.05650400  -47.87697600
 N  121.57864400  106.08372400  -43.38434300
 C  122.81119300  100.60630200  -47.12763900
 C  122.22314700  107.01255900  -44.34377300
 C  121.28909900  100.44272000  -47.16681700
16
-46.66746936377
 N  121.98044300  103.59966800  -46.34960400
 C  123.51182200  103.50867100  -44.71726400
 C  122.89136400  102.77490800  -45.76215200
 C  122.91479200  104.80608300  -44.71417500
 C  121.97978800  104.81421300  -45.72023300
 C  123.22822300  101.45124200  -46.04542100
 C  124.49530300  102.90131300  -43.93329900
 C  124.20812900  100.87678700  -45.25678600
 C  124.81259700  101.59667500  -44.22674400
Br  126.17637200  100.70028300  -43.15662100
 C  123.25140600  105.93398200  -43.78868200
 C  121.07458400  105.90188600  -46.16877500
 N  125.45865100  106.30918800  -44.81124700
 C  122.59132900  100.69723500  -47.17663100
 C  124.17013900  106.95420200  -44.46160400
 C  123.24552700  101.06124700  -48.51239200
16
-46.66615046209
 N  122.20859500  103.39808200  -46.05183800
 C  124.12907700  103.43412500  -44.90254100
 C  123.25728900  102.61855700  -45.66431300
 C  123.54956900  104.73897800  -44.86384200
 C  122.38169300  104.67430900  -45.58417600
 C  123.51497600  101.26772300  -45.91553400
 C  125.30134400  102.89315400  -44.37265200
 C  124.68109000  100.75767100  -45.37877500
 C  125.54003900  101.56643000  -44.63182700
Br  127.16580500  100.75132000  -43.92385700
 C  124.14078700  105.91895500  -44.15812400
 C  121.37684700  105.72615900  -45.89370500
 N  122.42469900  105.91485200  -42.39628000
 C  122.54147100  100.46481800  -46.73630000
 C  123.88353800  105.85116000  -42.65218900
 C  122.92283800   99.00584400  -46.94988200
16
-46.66612812218
 N  122.21126500  103.44063400  -46.63759600
 C  123.58156900  103.55709600  -44.87145200
 C  123.14899200  102.73732700  -45.94216300
 C  122.84734300  104.77895900  -44.96075900
 C  122.01712000  104.66266200  -46.04889800
 C  123.65712000  101.45375000  -46.16289400
 C  124.55122100  103.08717900  -43.98447900
 C  124.61642800  101.01433200  -45.27152300
 C  125.03732300  101.82424200  -44.21477900
Br  126.39276600  101.10743600  -43.00741500
 C  122.99177100  105.93757100  -44.02434800
 C  121.02197300  105.61220100  -46.61416800
 N  124.13365400  107.33092200  -45.69994000
 C  123.14490500  100.64054900  -47.32148400
 C  124.24655500  106.75309500  -44.33930500
 C  123.76202300   99.25547300  -47.46424400
16
-46.66603832705
 N  121.90810600  103.39248100  -46.56916600
 C  123.46320000  103.69589600  -44.98704300
 C  123.00156900  102.81481100  -45.99745900
 C  122.58190800  104.81981600  -44.98474300
 C  121.64371400  104.58889600  -45.96075400
 C  123.62499300  101.59603300  -46.28019700
 C  124.58293300  103.34776300  -44.22689700
 C  124.73166600  101.28081500  -45.51554000
 C  125.18059400  102.14593800  -44.51590300
Br  126.74754300  101.60799200  -43.48210600
 C  122.67112300  106.01379800  -44.08573000
 C  120.50001700  105.42767900  -46.39914300
 N  124.71308100  106.86890000  -45.16250000
 C  123.07125400  100.71441800  -47.36688500
 C  123.31548100  107.20372400  -44.79731800
 C  123.83191200   99.41544000  -47.59922400
16
-46.66603462165
 N  122.34046700  103.47205000  -46.52418700
 C  123.77725500  103.41266900  -44.80770900
 C  123.27691800  102.68856100  -45.91933700
 C  123.09551300  104.66732000  -44.79106600
 C  122.23418800  104.66377800  -45.86106700
 C  123.72601100  101.40694400  -46.25065300
 C  124.76662500  102.84309100  -44.00193500
 C  124.70145300  100.86824600  -45.43384100
 C  125.19991000  101.58631800  -44.34512900
Br  126.58529600  100.74451700  -43.25629700
 C  123.28780600  105.76801100  -43.79438300
 C  121.27899600  105.70486900  -46.31681300
 N  122.18455100  104.51990100  -41.98235100
 C  123.14466500  100.70326900  -47.44721900
 C  122.16522700  105.78451200  -42.75630400
 C  123.69248600   99.30622700  -47.70819100
16
-46.66594509871
 N  122.18532400  103.60131600  -46.41618600
 C  123.31736000  103.21007400  -44.52399100
 C  122.87875700  102.63889400  -45.74638300
 C  122.84184900  104.55412400  -44.50330600
 C  122.15783900  104.75237700  -45.67599800
 C  123.16034600  101.31811200  -46.09579400
 C  124.06295100  102.44330500  -43.62832500
 C  123.90169900  100.58079800  -45.19106300
 C  124.33199000  101.14609200  -43.99158700
Br  125.36787800  100.03143500  -42.77731800
 C  123.09373000  105.55214600  -43.41891300
 C  121.47463100  105.96763100  -46.18928800
 N  124.65387100  107.31538200  -42.64267000
 C  122.72280600  100.73571900  -47.40891900
 C  124.37871900  106.32750500  -43.71403400
 C  123.68672600  101.13356000  -48.53019300
16
-46.66593687976
 N  121.92905900  103.50936000  -46.59189900
 C  123.43401400  103.63697200  -44.93831300
 C  122.92366800  102.81295300  -45.97442800
 C  122.68585200  104.85008400  -44.97114500
 C  121.78115400  104.73241200  -45.99619900
 C  123.42847600  101.53826200  -46.23115600
 C  124.47503600  103.17345800  -44.13345000
 C  124.45901800  101.10313000  -45.41852200
 C  124.95649000  101.91479000  -44.39998600
Br  126.41152100  101.22076900  -43.30862700
 C  122.89294600  106.03000200  -44.07662500
 C  120.76868200  105.70139500  -46.48933300
 N  124.12627800  108.16472700  -43.82612900
 C  122.85307300  100.66118200  -47.30550100
 C  123.88094500  107.00544000  -44.71817200
 C  121.57920600   99.96574200  -46.81769800
16
-46.66593351175
 N  122.25533800  103.52605200  -46.43645900
 C  123.93968300  103.43378500  -44.96345500
 C  123.22728200  102.70469000  -45.95027600
 C  123.34415400  104.72767100  -44.89786900
 C  122.32080300  104.74208700  -45.81138100
 C  123.55240900  101.39042300  -46.28627400
 C  125.00192400  102.83233800  -44.28853600
 C  124.60860000  100.81776200  -45.60184000
 C  125.30500900  101.53702000  -44.63170700
Br  126.78045100  100.65064900  -43.72224800
 C  123.74753300  105.82717300  -43.96879800
 C  121.35843200  105.82189400  -46.15094100
 N  123.37204800  106.77824700  -41.71015900
 C  122.76896800  100.61766100  -47.30786000
 C  122.99043200  105.69323100  -42.64628700
 C  121.48007300  100.05791400  -46.69972900
16
-46.66587946671
 N  121.68850100  103.27521600  -46.50959600
 C  123.29723300  103.69024800  -45.00924800
 C  122.84769800  102.77408300  -45.99828500
 C  122.34256600  104.75273300  -44.96292400
 C  121.37889800  104.45741300  -45.89517300
 C  123.53993400  101.59950800  -46.29222400
 C  124.46718300  103.42267200  -44.29455000
 C  124.70394000  101.36907500  -45.57922200
 C  125.13869400  102.26378800  -44.60390400
Br  126.78700700  101.84964400  -43.64283800
 C  122.40921800  105.95886000  -44.07768000
 C  120.14059900  105.18930700  -46.26011200
 N  124.45293300  106.76500700  -45.20941300
 C  123.06195700  100.60907300  -47.31681800
 C  123.08588800  107.13994900  -44.77394100
 C  122.63389400   99.29220000  -46.66601400
16
-46.66443313671
 N  122.58550000  103.55541600  -46.54655500
 C  123.50052000  103.20393300  -44.53423300
 C  123.23805000  102.62149500  -45.79913900
 C  122.96453600  104.52489400  -44.56854100
 C  122.41770500  104.70008600  -45.81440800
 C  123.61901400  101.31665400  -46.12414000
 C  124.16799600  102.46342100  -43.55758000
 C  124.27823900  100.60708000  -45.13885900
 C  124.53542900  101.18466400  -43.89462700
Br  125.47115100  100.10404700  -42.57133700
 C  123.03614800  105.52346100  -43.45807200
 C  121.74174900  105.88358300  -46.40562900
 N  124.41792100  107.32718500  -42.46934800
 C  123.30067600  100.76782600  -47.48942600
 C  124.31500800  106.35336100  -43.58319900
 C  123.74673700   99.33178300  -47.73194500
