36
-96.64063280131
 C  -22.85956600   -2.83938800  -24.32904400
 N  -22.05831400   -1.77796500  -24.67549900
 N  -23.03668000   -2.93403200  -23.03036800
 C  -21.73034000   -1.14254600  -23.51881200
 C  -21.82651500    1.71030500  -19.49757600
 C  -22.36422300   -1.87976300  -22.48338300
 C  -22.18952300    2.54369700  -20.68031900
 N  -20.97792700   -0.06560700  -23.35692800
 N  -21.51897800    0.41545500  -19.76119000
 C  -22.26314700   -1.40165100  -21.18447700
 C  -24.69913200    0.76917200  -23.75062100
 C  -25.17852000    0.32628300  -25.06709800
 N  -24.23497600    2.05272500  -23.72542200
 C  -21.54899900   -0.22078300  -21.01865500
 C  -25.61154600   -0.93368500  -25.21906400
 C  -23.15601100    2.03033600  -21.53881900
 C  -23.45178300   -3.73900700  -25.29977700
 O  -21.81124700    2.12331500  -18.34186400
 C  -21.57318900    3.76555000  -20.95592000
 C  -23.43302400    2.64907300  -22.74968600
 O  -24.70201500    0.02566700  -22.77094700
 C  -20.89509800    0.36898600  -22.11192600
 C  -21.93076500    4.42106300  -22.13134400
 C  -22.81860600    3.86926200  -23.03135900
 C  -26.06431800   -1.57726100  -26.43376100
 C  -20.52066400    4.33900500  -20.05968200
 C  -24.16723000   -4.84769500  -24.84286200
 C  -23.34177600   -3.52233300  -26.67432200
 C  -25.83928000   -1.04006000  -27.70393100
 C  -26.74204700   -2.79546700  -26.33409500
 C  -24.74804800   -5.72223600  -25.73964400
 C  -23.92437900   -4.40291900  -27.56527900
 C  -26.28182100   -1.70078700  -28.83283300
 C  -27.19269100   -3.44735300  -27.46453700
 C  -24.62559500   -5.50448000  -27.10319200
 C  -26.96242100   -2.90314000  -28.71802300
36
-96.63942990376
 C  -28.62825200    5.79909700  -23.47612400
 N  -29.41559500    4.82764200  -22.90966000
 N  -27.45405200    5.34162000  -23.85134900
 C  -28.67471300    3.68721100  -22.88564100
 C  -24.50598200    0.96821300  -22.28956700
 C  -27.43455900    4.02488000  -23.48995500
 C  -23.99534600    2.35771000  -22.11286700
 N  -29.00590300    2.49547800  -22.41791800
 N  -25.76939300    0.83816000  -22.77223300
 C  -26.44688500    3.05373000  -23.55797600
 C  -26.59659400    5.44920200  -20.46919100
 C  -27.31713400    6.72381600  -20.30493600
 N  -25.27893700    5.56542800  -20.78379900
 C  -26.74192600    1.84021300  -22.94456900
 C  -27.07456300    7.82790600  -21.02191800
 C  -24.76194400    3.24935700  -21.36766300
 C  -29.04618300    7.17830400  -23.63541000
 O  -23.84952800   -0.03766300  -22.03708500
 C  -22.80829500    2.77336300  -22.72047500
 C  -24.43242800    4.59704400  -21.32898300
 O  -27.18067100    4.37609300  -20.32041300
 C  -28.03061400    1.60408000  -22.44107800
 C  -22.44116600    4.10936400  -22.58410100
 C  -23.24542400    5.01723900  -21.92869400
 C  -27.80955500    9.07823500  -20.96122500
 C  -21.97091100    1.84271700  -23.54093800
 C  -30.19664200    7.67826100  -23.02498500
 C  -28.26549600    8.03281300  -24.41676700
 C  -28.97069700    9.24668800  -20.20319500
 C  -27.33235100   10.16835300  -21.69378800
 C  -30.56027200    8.99930600  -23.20558600
 C  -28.63649400    9.35049200  -24.59362000
 C  -29.62339800   10.46294900  -20.17654900
 C  -27.98460000   11.38522800  -21.66179800
 C  -29.78706800    9.83661000  -23.99225600
 C  -29.13321100   11.53725000  -20.90279800
