19
-49.85918461131
 S  -10.08639200   -2.20272700    1.78231400
 O  -11.28331700   -1.35339500    2.47154200
 O  -10.50271700   -3.59978800    1.88418500
 O   -9.98630500   -1.73211600    0.41750000
 O   -8.94078200   -1.90582200    2.61035600
 O  -12.64572600   -2.97200200    0.52929300
 O  -14.60243600    2.89591200    0.12737800
 O  -13.17941600    3.11113200    1.71766600
 C  -12.50968200    0.50507800    1.65823200
 N  -13.76939100    2.42937500    0.89038900
 C  -13.83051800   -1.09081400   -0.19047100
 C  -12.21245200   -0.83936800    1.59194600
 C  -14.13855500    0.24502300   -0.12004300
 C  -12.86385100   -1.66541900    0.65122700
 C  -13.47560300    1.04860500    0.80930700
 H  -11.88153300   -3.30063100    1.06701900
 H  -11.99891000    1.13017400    2.37335200
 H  -14.31785400   -1.74272800   -0.89602100
 H  -14.87896800    0.68749600   -0.76761200
19
-49.85918314254
 S  -10.17701100   -2.31986900    1.81262500
 O  -11.32949900   -1.40409400    2.49302300
 O  -10.64116400   -3.69640400    1.97178800
 O  -10.08691800   -1.90085400    0.43033600
 O   -9.00572900   -2.03626900    2.60855800
 O  -12.78783600   -3.03809300    0.63577200
 O  -13.07062300    3.09940200    1.60978200
 O  -14.53806100    2.88050200    0.06087300
 C  -12.50185600    0.46928800    1.63531400
 N  -13.70474000    2.41094400    0.82168800
 C  -13.91610800   -1.14058700   -0.13057500
 C  -12.25577200   -0.88687900    1.61232000
 C  -14.17332500    0.20756900   -0.10285000
 C  -12.95520300   -1.72079500    0.71393000
 C  -13.46351400    1.01800200    0.78490400
 H  -12.02563900   -3.37584500    1.17077000
 H  -11.95495000    1.10008900    2.31792700
 H  -14.44051500   -1.79828600   -0.80341900
 H  -14.90903900    0.65455300   -0.75270700
19
-49.85917834111
 S  -10.06572700   -2.22384900    1.65650400
 O  -11.17928400   -1.30624200    2.39550000
 O   -8.84547700   -1.90909700    2.36217700
 O  -10.49911900   -3.60200300    1.87736100
 O  -10.07789400   -1.83553800    0.26240200
 O  -12.73970200   -2.99961400    0.67742200
 O  -14.61337000    2.88149000    0.10748400
 O  -13.05642600    3.15071400    1.55792800
 C  -12.43979200    0.53116000    1.58713900
 N  -13.72728400    2.43844300    0.82320700
 C  -13.94782000   -1.13410900   -0.04399100
 C  -12.17380800   -0.82145400    1.57253500
 C  -14.22390900    0.21035500   -0.02436400
 C  -12.92125100   -1.68338100    0.74199200
 C  -13.46700700    1.04877900    0.79609300
 H  -11.93787800   -3.31611900    1.16531900
 H  -11.85653200    1.18330700    2.21763500
 H  -14.50753600   -1.81286800   -0.66549500
 H  -15.01030200    0.63322200   -0.62944100
19
-49.85917594952
 S  -10.23201600   -2.40483600    1.80194600
 O  -11.34062000   -1.44326300    2.49168100
 O  -10.15598500   -2.00760300    0.41244200
 O   -9.03644200   -2.14905100    2.57090800
 O  -10.73693800   -3.76338200    1.98921400
 O  -12.88484200   -3.05359000    0.68300100
 O  -14.46771500    2.90852100    0.07318900
 O  -12.96587300    3.09961200    1.59259600
 C  -12.47382300    0.45452600    1.63532200
 N  -13.63465100    2.42229700    0.82374800
 C  -13.97059600   -1.13148700   -0.08322800
 C  -12.26862900   -0.90857400    1.62324800
 C  -14.18681600    0.22397200   -0.06638900
 C  -13.01074000   -1.73102200    0.74891700
 C  -13.43560900    1.02256300    0.79783400
 H  -12.12376700   -3.40872100    1.20809900
 H  -11.89472200    1.07642000    2.29936500
 H  -14.52790800   -1.78061400   -0.73771300
 H  -14.92162600    0.68580300   -0.70682800
19
-49.85917285556
 S  -11.50257000   -1.82162100    3.81041400
 O  -11.12485900   -0.77915700    2.62748100
 O  -10.72706700   -1.35332200    4.93519300
 O  -12.93676900   -1.73767300    3.98532500
 O  -11.05346400   -3.12533000    3.32590800
 O  -12.63419100   -2.81260900    1.26889200
 O  -14.67502500    2.79724600   -0.40017500
 O  -13.12900600    3.38152900    0.96690400
 C  -12.46273600    0.83339300    1.51993500
 N  -13.77488000    2.52388800    0.38001300
 C  -13.88439600   -1.15297200    0.20039900
 C  -12.15496100   -0.48911000    1.75792000
 C  -14.18657900    0.16259900   -0.04882700
 C  -12.87344500   -1.51428800    1.10657900
 C  -13.47213200    1.16248700    0.61354100
 H  -11.99032900   -3.01241900    1.99461200
 H  -11.91510600    1.60926500    2.03099500
 H  -14.41461500   -1.95310000   -0.28843100
 H  -14.96433800    0.44092800   -0.74235700
19
-49.85917143923
 S  -11.37455500   -2.45135700    3.29679500
 O  -11.05167900   -1.28318500    2.21964000
 O  -12.77347500   -2.31272300    3.64099400
 O  -11.06955100   -3.70245500    2.60582700
 O  -10.45549500   -2.17878700    4.37697800
 O  -12.83270400   -3.03279800    0.79772700
 O  -14.64478400    2.85171100    0.08492300
 O  -12.91930600    3.16592700    1.31946300
 C  -12.38193400    0.53335000    1.47872100
 N  -13.68532900    2.42936600    0.71314400
 C  -14.07176900   -1.18069200    0.09492700
 C  -12.14431500   -0.82408000    1.51489900
 C  -14.30601800    0.17106100    0.04700500
 C  -12.99778900   -1.71308000    0.82722200
 C  -13.45631700    1.03403200    0.74128800
 H  -12.13169800   -3.36080400    1.41573700
 H  -11.72999800    1.20400800    2.01553200
 H  -14.70557600   -1.87902800   -0.42551100
 H  -15.13174200    0.58071100   -0.51313000
19
-49.85916858294
 S   -9.73959900   -1.44535400    1.83087900
 O  -11.02476200   -0.73019700    2.51356600
 O   -8.62135900   -0.90673900    2.56928900
 O   -9.92878800   -2.87512700    2.06721800
 O   -9.77040600   -1.08673300    0.42917600
 O  -12.19618600   -2.70107700    0.78336700
 O  -13.62822900    3.30889900    1.51158800
 O  -15.07128600    2.73807700    0.03100000
 C  -12.56163700    0.84040300    1.62431100
 N  -14.14009800    2.47457100    0.77742100
 C  -13.68911700   -1.09262800   -0.01915000
 C  -12.05904800   -0.44307500    1.64806900
 C  -14.20049700    0.18108300   -0.03795800
 C  -12.61078800   -1.43750900    0.81247200
 C  -13.63505000    1.15375300    0.78856800
 H  -11.36923700   -2.86128300    1.30464100
 H  -12.12771800    1.59596800    2.25976800
 H  -14.09578400   -1.87019100   -0.64387200
 H  -15.02666500    0.44751000   -0.67817800
19
-49.85916853049
 S  -11.35117600   -1.65291800    3.79192400
 O  -11.02842100   -0.69678000    2.52311600
 O  -10.47908000   -1.14816700    4.82676400
 O  -12.76476200   -1.50462500    4.06446600
 O  -10.98292200   -2.99910000    3.35858500
 O  -12.69520200   -2.75097800    1.40189700
 O  -13.02242400    3.42884400    0.76324800
 O  -14.67424700    2.81929000   -0.46161300
 C  -12.39341800    0.89513700    1.41841500
 N  -13.73225700    2.56109600    0.27307600
 C  -13.97039700   -1.11362700    0.32844600
 C  -12.11020100   -0.42132600    1.71355200
 C  -14.24879100    0.19498700    0.02169600
 C  -12.90648200   -1.45677900    1.17920600
 C  -13.45616200    1.20601100    0.56809300
 H  -12.00639700   -2.93078400    2.09093300
 H  -11.78573100    1.67998200    1.83996100
 H  -14.56045600   -1.92145900   -0.07095000
 H  -15.06702700    0.45969000   -0.62930800
19
-49.85916723016
 S  -10.40427300   -2.51719200    1.98526700
 O  -11.39982300   -1.39760800    2.60310700
 O  -10.39677700   -2.30980300    0.55293100
 O   -9.14569300   -2.25125700    2.64199300
 O  -10.98028000   -3.80086900    2.38097400
 O  -13.16772900   -3.11630300    1.12846800
 O  -12.79337000    3.09310700    1.19411900
 O  -14.37926100    2.81037300   -0.22203300
 C  -12.46227400    0.44717800    1.56083300
 N  -13.54273500    2.36945900    0.55226000
 C  -14.16948900   -1.23891800    0.16383100
 C  -12.34833400   -0.91669100    1.72503000
 C  -14.29367600    0.11892800    0.00480900
 C  -13.19958200   -1.79138000    1.01665600
 C  -13.43740800    0.96796400    0.70819400
 H  -12.39690400   -3.45457000    1.65101000
 H  -11.80033800    1.10650000    2.09944200
 H  -14.80957900   -1.92724200   -0.36225200
 H  -15.03609700    0.54417300   -0.65200700
19
-49.85916715306
 S  -11.31261800   -2.55465400    3.15225500
 O  -11.01788900   -1.37600300    2.07946100
 O  -11.08192100   -3.80052000    2.42422600
 O  -10.32669500   -2.32692400    4.18293000
 O  -12.68549700   -2.38478200    3.57755800
 O  -12.92234200   -3.05252900    0.72883000
 O  -12.80071500    3.13692800    1.34540900
 O  -14.58716600    2.89317000    0.18367400
 C  -12.33160000    0.48818700    1.43550500
 N  -13.61474400    2.43273900    0.76352600
 C  -14.14135000   -1.15478300    0.11905100
 C  -12.13268400   -0.87588400    1.44014500
 C  -14.33733400    0.20369400    0.10191200
 C  -13.04663300   -1.72939700    0.78591600
 C  -13.42741800    1.03125900    0.76226000
 H  -12.19681500   -3.41032200    1.30055900
 H  -11.63332300    1.13175200    1.94664300
 H  -14.82193300   -1.82632700   -0.37704600
 H  -15.17866400    0.64593100   -0.40805500
19
-49.8591653659
 S  -11.17553700   -2.58705000    3.00256500
 O  -10.94038500   -1.38735300    1.93820300
 O  -10.94875300   -3.81746400    2.24710800
 O  -10.15814900   -2.35731500    4.00165700
 O  -12.53534500   -2.44918800    3.47853600
 O  -12.86315200   -3.07659800    0.63080900
 O  -14.65473500    2.84478000    0.24895200
 O  -12.83183300    3.10245300    1.34956100
 C  -12.31128000    0.46238500    1.37610500
 N  -13.65397100    2.39309600    0.78569300
 C  -14.14023900   -1.19293600    0.10191200
 C  -12.08746400   -0.89765000    1.34983800
 C  -14.36136000    0.16169700    0.11511000
 C  -13.00996300   -1.75732600    0.71625300
 C  -13.44161000    0.99534700    0.75384800
 H  -12.11063400   -3.43011300    1.16929100
 H  -11.60545700    1.11030200    1.87109100
 H  -14.82720200   -1.86933600   -0.37857200
 H  -15.22972800    0.59610800   -0.35463800
19
-49.85916452139
 S  -11.39173500   -2.50883800    3.25525200
 O  -11.06631800   -1.24929100    2.28745200
 O  -12.82176200   -2.49403500    3.47709900
 O  -10.93234500   -3.68421100    2.51775600
 O  -10.59428100   -2.24748000    4.43062800
 O  -12.57376300   -3.01830600    0.59843100
 O  -13.19059900    3.10556600    1.50481100
 O  -14.75953900    2.75947500    0.08384600
 C  -12.46330600    0.51474300    1.54218100
 N  -13.83601600    2.36180100    0.77859000
 C  -13.88823100   -1.21542100   -0.09600100
 C  -12.12536400   -0.82142600    1.51475900
 C  -14.22086500    0.11620900   -0.08098200
 C  -12.84370800   -1.71945200    0.69671900
 C  -13.50427100    0.98769100    0.74121800
 H  -11.90585300   -3.33750700    1.25663700
 H  -11.91409100    1.19122400    2.17758600
 H  -14.41871200   -1.91956600   -0.71491100
 H  -15.02400900    0.50355700   -0.68784700
19
-49.85628413886
 S   -9.66859500   -0.56142200    2.05082700
 O  -10.99184000   -1.51392100    1.96807100
 O   -8.64407700   -1.53045400    2.38128800
 O   -9.52666400    0.02015100    0.73055400
 O   -9.91776900    0.40142500    3.10575100
 O  -12.86706500   -3.10951000    0.83834500
 O  -14.56718000    2.79122900    0.06296300
 O  -12.75004400    3.08757600    1.16284800
 C  -12.26217700    0.44253400    1.33558600
 N  -13.58074900    2.35603600    0.64012000
 C  -14.16492500   -1.25259500    0.18370900
 C  -12.07981100   -0.91770900    1.38156000
 C  -14.34877500    0.10961600    0.12627800
 C  -13.03238200   -1.78841400    0.80145100
 C  -13.39908400    0.95526300    0.70131300
 H  -12.03095700   -3.33675400    1.28227800
 H  -11.52915200    1.09271800    1.78222200
 H  -14.87647100   -1.93522200   -0.24998900
 H  -15.21229800    0.54216300   -0.35388200
19
-49.8562827825
 S   -9.67153800   -0.60707100    2.05202700
 O  -11.00518200   -1.54559600    1.96738700
 O   -9.90880200    0.35307700    3.11208100
 O   -8.65605300   -1.58793400    2.37549200
 O   -9.52638100   -0.02053600    0.73434900
 O  -12.88773300   -3.11567900    0.81232700
 O  -14.53357500    2.80623900    0.08129900
 O  -12.71879000    3.07715900    1.19159000
 C  -12.25585200    0.42643100    1.34524200
 N  -13.55366000    2.35735000    0.65918600
 C  -14.16706500   -1.24197100    0.16902300
 C  -12.08531000   -0.93572000    1.38018100
 C  -14.33899800    0.12211000    0.12286700
 C  -13.04202500   -1.79303000    0.78718600
 C  -13.38487900    0.95473900    0.70957200
 H  -12.05497900   -3.35435700    1.25656000
 H  -11.51951200    1.06641500    1.80106600
 H  -14.88228400   -1.91472700   -0.27397700
 H  -15.19618800    0.56674700   -0.35767700
19
-49.85627921965
 S  -11.04799200   -0.61620100    3.85467900
 O  -11.34436400   -1.45889600    2.48778500
 O  -12.34916000   -0.21819200    4.35460700
 O  -10.38622800   -1.61733200    4.66567500
 O  -10.18725000    0.48850900    3.47974600
 O  -12.75831800   -3.03598000    0.80012400
 O  -13.00970600    3.13049800    1.45479600
 O  -14.52323800    2.83781000   -0.03609100
 C  -12.46826900    0.49542800    1.61905500
 N  -13.66386600    2.40380300    0.71810400
 C  -13.90345100   -1.18031000   -0.09992200
 C  -12.24567500   -0.85940000    1.64453800
 C  -14.13850400    0.17504800   -0.12293800
 C  -12.96534600   -1.72044000    0.78286300
 C  -13.42228700    1.01111300    0.73484400
 H  -12.09471400   -3.26711900    1.47401400
 H  -11.91237800    1.13789200    2.28084500
 H  -14.43795000   -1.85540000   -0.74716900
 H  -14.86556100    0.60962200   -0.79068900
19
-49.85627764827
 S   -9.71147900   -0.78047200    2.05882500
 O  -11.07342400   -1.67240800    1.93417300
 O   -9.93941900    0.17539800    3.12479100
 O   -8.73705200   -1.79871100    2.39247900
 O   -9.51822300   -0.18457000    0.75154900
 O  -12.98473000   -3.16562300    0.72270900
 O  -12.61090400    3.01364000    1.17229800
 O  -14.41516100    2.81641600    0.02987300
 C  -12.24303000    0.34725600    1.30786000
 N  -13.46070000    2.32820000    0.61840800
 C  -14.18485900   -1.24238000    0.07456300
 C  -12.11948300   -1.02030000    1.33125000
 C  -14.30954600    0.12711400    0.04022900
 C  -13.09217100   -1.83821400    0.70938300
 C  -13.33989400    0.92040100    0.65544900
 H  -12.17022400   -3.43931900    1.18049900
 H  -11.49444800    0.95605600    1.78607800
 H  -14.91289300   -1.88544700   -0.39103700
 H  -15.14135000    0.60522400   -0.45257100
19
-49.85627732954
 S  -11.04351600   -0.67080500    3.84907600
 O  -11.36227200   -1.49959300    2.47826800
 O  -12.33601700   -0.26966200    4.36836600
 O  -10.37764200   -1.68317900    4.64245500
 O  -10.18076900    0.43199200    3.47320700
 O  -12.79776500   -3.04902700    0.78330000
 O  -14.52734700    2.84479300    0.01845600
 O  -13.01442100    3.11010600    1.51507500
 C  -12.48151200    0.47121600    1.64033500
 N  -13.67170400    2.39635700    0.76850200
 C  -13.93855300   -1.17692000   -0.08689100
 C  -12.26633700   -0.88500000    1.64911200
 C  -14.16557100    0.17994900   -0.09350800
 C  -12.99708800   -1.73227200    0.78288700
 C  -13.43848700    1.00220800    0.76847500
 H  -12.13085100   -3.29241700    1.44958700
 H  -11.91724100    1.10286200    2.30540400
 H  -14.48157900   -1.84183300   -0.73757300
 H  -14.89485900    0.62627400   -0.75098600
19
-49.85627261919
 S  -10.24688700   -0.25519000    3.13763400
 O  -11.32205200   -1.32788000    2.53784900
 O   -9.80776700    0.53032100    2.00108800
 O  -10.94575800    0.50350200    4.15623200
 O   -9.23132800   -1.14067400    3.66922300
 O  -12.49173500   -2.93581100    0.69932200
 O  -13.45063700    3.11185600    1.71353300
 O  -14.74747200    2.78943400    0.03628600
 C  -12.62530600    0.54560100    1.74246100
 N  -13.94401100    2.38200500    0.86344300
 C  -13.79369200   -1.15846500   -0.14252200
 C  -12.25719600   -0.77659400    1.69829900
 C  -14.15806600    0.16775900   -0.11099800
 C  -12.83909700   -1.65109900    0.75028000
 C  -13.57541700    1.01776000    0.83010400
 H  -11.80922600   -3.12997700    1.36579100
 H  -12.17486000    1.19908000    2.47025300
 H  -14.22244500   -1.84321900   -0.85497100
 H  -14.88644400    0.56852100   -0.79815600
19
-49.85626912455
 S  -11.17000900   -0.69355900    3.91573700
 O  -11.43289700   -1.51697500    2.53013800
 O  -10.28852700    0.40761000    3.58071300
 O  -12.48210900   -0.28994600    4.38144600
 O  -10.54161400   -1.71043800    4.73355600
 O  -12.79972500   -3.05411900    0.76579700
 O  -13.01939800    3.10342300    1.51186400
 O  -14.48228400    2.84845900   -0.03543600
 C  -12.50761500    0.46111700    1.65247900
 N  -13.65299600    2.39465500    0.74050200
 C  -13.89094900   -1.17298400   -0.14652500
 C  -12.29741200   -0.89593600    1.66422600
 C  -14.11337800    0.18460900   -0.15627400
 C  -12.99219300   -1.73623300    0.76245100
 C  -13.42326100    0.99988200    0.74198800
 H  -12.16652900   -3.30506800    1.46141900
 H  -11.97154400    1.08780100    2.34499400
 H  -14.40613900   -1.83284000   -0.82445400
 H  -14.81072400    0.63660100   -0.84384000
19
-49.85626635318
 S  -11.17355800   -0.65803400    3.92974100
 O  -11.35507900   -1.45005400    2.51397800
 O  -10.46511700   -1.64616900    4.71681300
 O  -10.38780700    0.52620100    3.64365400
 O  -12.51883300   -0.38507500    4.39663400
 O  -12.54670900   -3.02570600    0.65727400
 O  -14.73113900    2.73449900    0.05722000
 O  -13.33407300    3.05049600    1.65323100
 C  -12.58926000    0.45999500    1.69676800
 N  -13.88446500    2.32245500    0.83750900
 C  -13.79020700   -1.21264900   -0.19492500
 C  -12.25847900   -0.87220700    1.65770300
 C  -14.13345300    0.11904200   -0.15409900
 C  -12.85862600   -1.73164100    0.70730700
 C  -13.53327600    0.95360400    0.78969100
 H  -11.90072900   -3.24902500    1.35051100
 H  -12.12310000    1.10192800    2.42491500
 H  -14.23297700   -1.88609800   -0.90957800
 H  -14.85728700    0.53548400   -0.83666600
19
-49.85625635779
 S  -10.95512900   -0.57253900    3.79139100
 O  -11.25989900   -1.41121200    2.42341500
 O  -10.16039700    0.57628000    3.40362000
 O  -12.25556300   -0.24268400    4.34074400
 O  -10.21908500   -1.55131800    4.56474700
 O  -12.67359700   -3.03335000    0.77816300
 O  -14.71880500    2.76619000    0.07270100
 O  -13.16317400    3.11060700    1.50825000
 C  -12.50179400    0.50010900    1.62137900
 N  -13.81345800    2.36314700    0.78923100
 C  -13.93382800   -1.22127200   -0.05408100
 C  -12.22047900   -0.84393800    1.62387000
 C  -14.22747600    0.12264500   -0.05361300
 C  -12.93739700   -1.72797000    0.78372200
 C  -13.51248600    0.98186300    0.78217400
 H  -11.97244600   -3.24114600    1.42088500
 H  -11.94755500    1.15992200    2.26735300
 H  -14.46566500   -1.91336300   -0.68535300
 H  -14.99966600    0.53122700   -0.68620600
19
-49.85625574068
 S  -11.18031900   -0.80057900    3.90393400
 O  -11.45952700   -1.59378500    2.50425100
 O  -10.54331100   -1.83506100    4.69257500
 O  -10.30189800    0.30711200    3.58246700
 O  -12.48667000   -0.40660700    4.39336300
 O  -12.83272500   -3.08731000    0.70709900
 O  -13.06419100    3.04755700    1.61822700
 O  -14.51383100    2.83371100    0.05237400
 C  -12.54025600    0.40474800    1.68159000
 N  -13.69048500    2.35954300    0.82251100
 C  -13.92884800   -1.18483100   -0.15277500
 C  -12.32858200   -0.95187500    1.65830800
 C  -14.15203900    0.17245700   -0.12810200
 C  -13.02603300   -1.76992300    0.73826000
 C  -13.45940700    0.96545600    0.78801100
 H  -12.19665200   -3.35597900    1.39338400
 H  -12.00219800    1.01480400    2.38728000
 H  -14.44620800   -1.82784600   -0.84507400
 H  -14.85223400    0.64083200   -0.80162800
19
-49.85625252921
 S  -10.18148200   -0.18854400    3.03378400
 O  -11.30221500   -1.27280800    2.55140800
 O   -9.15364200   -1.06108100    3.56317400
 O   -9.78966300    0.52398400    1.83356500
 O  -10.81449700    0.63951600    4.04157700
 O  -12.56705500   -2.95613300    0.84583800
 O  -13.41371500    3.14711900    1.59398100
 O  -14.78108500    2.76006600   -0.01203500
 C  -12.61665800    0.57493100    1.71676100
 N  -13.94989700    2.38283000    0.80197400
 C  -13.88418800   -1.20566100   -0.02791600
 C  -12.26634100   -0.75289400    1.72456600
 C  -14.23139600    0.12533400   -0.04871300
 C  -12.89746000   -1.66598200    0.84734500
 C  -13.59928900    1.01372500    0.82266100
 H  -11.85675800   -3.12711200    1.48929700
 H  -12.12731600    1.25711000    2.39121000
 H  -14.35085800   -1.91922600   -0.68625900
 H  -14.98393500    0.50042000   -0.72422800
19
-49.85624813077
 S   -9.96774300   -0.31059400    2.73091400
 O  -11.14488900   -1.35764800    2.30297700
 O   -9.64353300    0.42300400    1.52334400
 O  -10.50973000    0.50536300    3.79972300
 O   -8.92666000   -1.21887800    3.16616300
 O  -12.55411400   -2.96799000    0.64257700
 O  -14.70260200    2.81057100    0.08765700
 O  -13.22111500    3.12738900    1.60548400
 C  -12.47258800    0.53756400    1.60752600
 N  -13.82611500    2.39543600    0.83275100
 C  -13.89248200   -1.16977200   -0.09256500
 C  -12.15089200   -0.79646300    1.55684000
 C  -14.21230100    0.16763000   -0.05459300
 C  -12.85841700   -1.67267300    0.70058900
 C  -13.50402800    1.01975200    0.79417400
 H  -11.80552400   -3.16805100    1.23193900
 H  -11.92485200    1.19210900    2.26423800
 H  -14.41778600   -1.85565900   -0.73597100
 H  -15.00073500    0.57579000   -0.66706800
19
-49.85608368273
 S  -11.03940400   -0.67824900    3.86457100
 O  -11.61574900   -1.60631300    2.65569600
 O  -10.24942300   -1.64377400    4.60034300
 O  -10.25185200    0.36190100    3.23256200
 O  -12.19914200   -0.19730000    4.58918700
 O  -12.62587400   -3.08299400    0.64312300
 O  -14.70283700    2.71512000    0.04550700
 O  -13.50167900    2.94856700    1.80673500
 C  -12.76765700    0.35552700    1.81745700
 N  -13.95765700    2.26068600    0.90235100
 C  -13.78711400   -1.23424900   -0.24682600
 C  -12.43477800   -0.97474100    1.75539600
 C  -14.12492300    0.09847000   -0.18923000
 C  -12.94285300   -1.79149700    0.71535400
 C  -13.61562300    0.89057400    0.84006100
 H  -12.03280700   -3.32966900    1.37469300
 H  -12.37690600    0.96967900    2.60983800
 H  -14.16022500   -1.87641200   -1.02699000
 H  -14.77555900    0.54752000   -0.92290900
