25
-40.51230097846
 C   10.85069200  -29.14725000    7.13205200
 O   10.44260600  -29.60100700    8.20543100
 O   11.20511800  -29.77012200    6.10875100
 C   10.95882500  -27.56935700    6.99960200
 N   11.43481600  -27.31651900    5.62599000
 C    9.60720700  -26.94366300    7.32164000
 C    9.66440200  -25.46502400    7.71242500
 C    9.85384200  -24.50502400    6.53230200
 N    8.74051100  -24.52852600    5.60775700
 C    8.73842600  -25.23896300    4.46131600
 O    9.72325800  -25.89055200    4.07726100
 N    7.60332500  -25.20091700    3.73559800
 H   11.69784900  -27.24916700    7.73667900
 H   12.34770600  -26.86576800    5.58703500
 H   11.51555700  -28.30207400    5.25069300
 H    9.20242700  -27.51565800    8.16042000
 H    8.93424800  -27.09185900    6.47540200
 H   10.47638300  -25.31004100    8.42285300
 H    8.73195800  -25.20936900    8.21805700
 H   10.75412600  -24.74484300    5.96779700
 H    9.94897500  -23.48702300    6.91697900
 H    7.87638000  -24.12244300    5.92749500
 H    7.60378800  -25.65467800    2.83914500
 H    6.84134000  -24.59263400    3.97355900
 H   10.75202000  -26.77794000    5.03103100
25
-40.51040495014
 C   10.42559600  -28.74138500    6.01812500
 O    9.69616700  -28.86373900    5.01062600
 O   11.02074900  -29.62278500    6.64661300
 C   10.58808600  -27.24750900    6.51770700
 N    9.94792600  -26.40195300    5.48978500
 C    9.99069100  -27.06546100    7.91529200
 C    8.63921300  -27.74997200    8.14289300
 C    7.43107200  -27.04980300    7.51048600
 N    7.18059900  -25.73846400    8.07010100
 C    7.60435800  -24.58561100    7.51332900
 O    8.23555300  -24.54792300    6.44487900
 N    7.31520900  -23.45478000    8.18743400
 H   11.65925700  -27.04569000    6.56992400
 H   10.62691400  -25.89349800    4.92456100
 H    9.47649000  -27.12343500    4.88299200
 H    9.91468300  -25.99893000    8.13450500
 H   10.70133400  -27.50511800    8.61616300
 H    8.47076000  -27.82098400    9.21919900
 H    8.69034400  -28.76850800    7.75392400
 H    6.54528200  -27.66469000    7.68621100
 H    7.55573900  -26.94730400    6.43313900
 H    6.77927600  -25.71090900    8.99305300
 H    7.53699000  -22.57931200    7.74637500
 H    6.69661500  -23.45578400    8.97789700
 H    9.24920500  -25.70911500    5.87473800
25
-40.5103904315
 C   10.80558500  -28.48429600    6.04477300
 O   11.47910900  -29.31314000    6.66566600
 O   10.32385300  -28.57932500    4.89550700
 C   10.49728500  -27.10557000    6.76069900
 N    9.85124800  -26.25336200    5.74218500
 C    9.64515300  -27.31075300    8.01563700
 C    8.49747800  -28.31501800    7.86944400
 C    7.27567700  -27.81055400    7.09348200
 N    6.60669800  -26.70730300    7.75009900
 C    6.80513100  -25.41109200    7.43632900
 O    7.56533600  -25.05070200    6.52305500
 N    6.13886900  -24.50552700    8.18030700
 H   11.45942100  -26.68555300    7.05878600
 H   10.45852000  -25.50229700    5.41649100
 H    9.70187100  -26.93759300    4.95439100
 H    9.26151500  -26.34446400    8.34776500
 H   10.31500900  -27.69272800    8.78684800
 H    8.17227100  -28.60841200    8.86949000
 H    8.87554200  -29.21140000    7.37465600
 H    6.56067800  -28.63170700    7.00337700
 H    7.55119000  -27.49779100    6.08689800
 H    6.07533100  -26.93030800    8.57578800
 H    6.19263600  -23.54219200    7.89798900
 H    5.41832600  -24.78078400    8.82286600
 H    8.93581200  -25.82507500    6.05094000
