29
-89.34179622472
 F   14.11751100  -25.78108600    2.89372400
 C   15.46132300  -25.62341300    2.80083400
 F   15.95079100  -26.11202200    3.96086000
 F   15.85403600  -26.48635000    1.84790600
 C   15.86214700  -24.20730700    2.54235700
 C   16.32344100  -23.81200900    1.29241900
 C   16.67070700  -22.49116100    1.08859400
 C   16.56093400  -21.55488800    2.11329900
 C   16.09110300  -21.96322500    3.35611900
 C   15.74245700  -23.28390700    3.57335400
 C   16.94805700  -20.12216700    1.83628800
 N   17.00323700  -19.29132100    3.01298800
 C   18.11943300  -19.18034300    3.75043800
 N   19.27209000  -19.58206400    3.23788500
 C   20.38654100  -19.38079100    3.97164400
 C   21.63617200  -19.77285600    3.45640500
 C   22.76614000  -19.56057000    4.20757000
 C   24.11241200  -19.95806400    3.68916200
 F   24.09139200  -20.52510300    2.47329900
 F   24.96487200  -18.91257300    3.58873800
 F   24.74345300  -20.84375300    4.49374800
 C   22.71069800  -18.96429700    5.47946300
 C   21.50054800  -18.58385600    5.99714000
 C   20.32550100  -18.78480600    5.25701500
 N   19.12609700  -18.41617900    5.78977800
 C   18.05683000  -18.58698500    5.07448900
 C   16.70617300  -18.20829400    5.69298900
 O   16.65847000  -17.19407600    6.40301300
 O   15.74896000  -18.96848900    5.40672000
29
-89.34178187748
 F   11.17065700  -21.11994400    1.25993300
 C   11.77260200  -22.32252200    1.11853500
 F   11.08362100  -23.15570100    1.93570800
 F   11.48374200  -22.72670000   -0.12982800
 C   13.23442300  -22.28515700    1.42581000
 C   14.17202100  -22.76914200    0.52161600
 C   15.51207000  -22.72505000    0.85181500
 C   15.93265200  -22.20559000    2.07346000
 C   14.98346600  -21.72444300    2.96776600
 C   13.63841000  -21.76356400    2.64859000
 C   17.41052000  -22.17555100    2.37897600
 N   17.72661800  -21.73674200    3.71475400
 C   17.88484300  -22.59806600    4.73087700
 N   18.04806600  -23.88491500    4.46573600
 C   18.28715100  -24.71234600    5.50442600
 C   18.48726900  -26.08482300    5.26569500
 C   18.73435000  -26.91981600    6.32770700
 C   18.96074700  -28.38306900    6.11171300
 F   18.86003700  -28.77558500    4.83259700
 F   20.18444300  -28.78960400    6.52184100
 F   18.09016000  -29.15568300    6.80032700
 C   18.79156500  -26.44294400    7.64884900
 C   18.59191000  -25.11040100    7.89744300
 C   18.33704800  -24.22826300    6.83652800
 N   18.12340700  -22.90742100    7.09834100
 C   17.91648400  -22.10740500    6.09788700
 C   17.63415300  -20.63140800    6.40055000
 O   16.78667500  -20.07973000    5.65661600
 O   18.26000000  -20.10062900    7.32891300
29
-89.3417794605
 F   14.54174700  -24.88061500   -0.48273900
 C   15.72679100  -24.68361300    0.14652300
 F   16.00021100  -25.84791600    0.75988100
 F   16.63467900  -24.57206200   -0.84740800
 C   15.70770500  -23.50267700    1.06189700
 C   15.68701700  -22.23035500    0.50424300
 C   15.65277100  -21.12025000    1.32830500
 C   15.63926000  -21.26998800    2.71023900
 C   15.65648700  -22.55169300    3.25394800
 C   15.68855600  -23.66788200    2.44155900
 C   15.59528100  -20.08402800    3.64340900
 N   15.78181500  -18.81336200    2.98869900
 C   16.99988000  -18.27881200    2.80984200
 N   18.02156600  -18.75674600    3.50306100
 C   19.21340700  -18.13886100    3.36697900
 C   20.32082800  -18.59793300    4.10426300
 C   21.52836000  -17.95830500    3.96655000
 C   22.72299600  -18.40837000    4.74721400
 F   22.51534900  -19.50428500    5.49307200
 F   23.78540700  -18.69608200    3.96237300
 F   23.17199100  -17.46391000    5.60658600
 C   21.69156300  -16.85810700    3.10693800
 C   20.62485300  -16.40563400    2.37575600
 C   19.37579800  -17.03436600    2.49219100
 N   18.32656100  -16.58580000    1.74652800
 C   17.17422100  -17.16385400    1.89527800
 C   16.00961500  -16.68196900    1.02228600
 O   15.21033600  -17.57341700    0.64433600
 O   15.94001000  -15.47137700    0.76783200
29
-89.34175489133
 F   10.86644600  -21.38672800    1.63323700
 C   11.76016300  -21.94205600    0.77787700
 F   11.49338700  -23.25930600    0.79179200
 F   11.38822100  -21.50675300   -0.44566000
 C   13.17538100  -21.60369000    1.11778200
 C   13.61830200  -20.30526500    0.89905800
 C   14.91894600  -19.96064700    1.21911500
 C   15.78461300  -20.90516900    1.75810200
 C   15.32445800  -22.20138500    1.97572300
 C   14.02774100  -22.55703900    1.66189000
 C   17.21013100  -20.56911000    2.12401400
 N   17.62891700  -19.25272400    1.71262400
 C   18.19861400  -19.02765900    0.51820300
 N   18.66629300  -20.05214300   -0.17690300
 C   19.30284000  -19.78254900   -1.33611800
 C   19.83116900  -20.84081600   -2.09857300
 C   20.47837700  -20.55909300   -3.27668500
 C   21.05717800  -21.65811100   -4.11107200
 F   20.87085100  -22.88901300   -3.61064100
 F   20.54455800  -21.69163600   -5.36238400
 F   22.39287800  -21.53470600   -4.28684700
 C   20.62720600  -19.24191900   -3.74460900
 C   20.11241000  -18.20190700   -3.01606300
 C   19.44516300  -18.45285300   -1.80765000
 N   18.92288500  -17.41028400   -1.10021900
 C   18.33176300  -17.66738800    0.02587700
 C   17.70723300  -16.50220100    0.80184300
 O   18.33017000  -15.43209900    0.84393300
 O   16.60496600  -16.75060200    1.34882700
29
-89.34174473
 F   19.16214900  -27.91605100   -1.18976600
 C   19.27946400  -26.67174800   -1.71521600
 F   20.55983200  -26.59277300   -2.14035700
 F   18.52802300  -26.68299400   -2.82925100
 C   18.91601400  -25.59501100   -0.74501400
 C   17.76529500  -24.83477600   -0.91500000
 C   17.45774800  -23.86034100    0.01382400
 C   18.28130300  -23.63286800    1.11334700
 C   19.42960500  -24.40049600    1.26986300
 C   19.74755000  -25.38026200    0.34708500
 C   17.90310500  -22.54913900    2.09418300
 N   18.70509600  -22.53524100    3.29174200
 C   18.36978400  -23.24607700    4.37951500
 N   17.13974100  -23.72415300    4.48283800
 C   16.81081900  -24.36373400    5.62444100
 C   15.50698500  -24.86874300    5.78468300
 C   15.17898800  -25.51698500    6.95011700
 C   13.80018800  -26.05911800    7.15991700
 F   12.97257000  -25.88404500    6.11841100
 F   13.79179400  -27.38747800    7.41361700
 F   13.17345200  -25.49954200    8.22061700
 C   16.11022200  -25.69312800    7.98838000
 C   17.38505800  -25.21229100    7.84415700
 C   17.75498500  -24.54377100    6.66725600
 N   19.03093800  -24.08355200    6.52871400
 C   19.34038800  -23.44601000    5.44173300
 C   20.78647200  -22.96591700    5.27217200
 O   21.24945300  -23.04730000    4.10806500
 O   21.37329400  -22.53019700    6.27256500
29
-89.34174219159
 F   13.73503500  -22.40986400    2.76833500
 C   14.19407100  -23.48123800    2.07205100
 F   13.84149400  -24.55280100    2.80701000
 F   13.43197900  -23.53180200    0.96247400
 C   15.65949200  -23.40337800    1.79041800
 C   16.10334000  -22.72925000    0.66054600
 C   17.46042300  -22.62776300    0.41164800
 C   18.38151000  -23.18865900    1.28824100
 C   17.92107800  -23.85992200    2.41821600
 C   16.56947900  -23.96986000    2.67622500
 C   19.86950100  -23.10367600    1.04702000
 N   20.24106100  -22.20209600   -0.01425500
 C   20.47501200  -20.89998200    0.20763300
 N   20.66590700  -20.48185500    1.44937700
 C   20.98247500  -19.18280200    1.63007900
 C   21.21452500  -18.69987700    2.93162700
 C   21.54145800  -17.37763200    3.10658300
 C   21.79584200  -16.82920000    4.47533300
 F   21.72227000  -17.73935200    5.45842600
 F   23.01756100  -16.26174300    4.59459900
 F   20.92466000  -15.85198100    4.81759500
 C   21.64826600  -16.48951400    2.02202300
 C   21.41826100  -16.94336400    0.74992700
 C   21.08240400  -18.28852200    0.53383400
 N   20.83720900  -18.72341700   -0.73456500
 C   20.55526800  -19.97766300   -0.91177600
 C   20.23666000  -20.44740700   -2.33592900
 O   19.35896200  -21.34036400   -2.42931600
 O   20.86378400  -19.92847200   -3.27012400
29
-89.34173354999
 F   15.83105100  -23.99671900    5.12639400
 C   14.79721400  -23.92261500    4.25059800
 F   14.59465900  -25.18547300    3.83557100
 F   13.72286300  -23.60905700    5.00462700
 C   15.04533300  -22.95245800    3.14158100
 C   14.93020700  -21.59311600    3.40330400
 C   15.17816100  -20.67716800    2.39704400
 C   15.54685500  -21.10820200    1.12811500
 C   15.65898400  -22.47420000    0.88146200
 C   15.41307400  -23.39820000    1.87742200
 C   15.82227000  -20.14219200    0.00124000
 N   15.83085300  -18.75761300    0.40149200
 C   16.95405500  -18.13722400    0.79449100
 N   18.12498900  -18.69362100    0.52670900
 C   19.23617200  -18.00671400    0.86393100
 C   20.50169600  -18.55215000    0.57807100
 C   21.62805100  -17.84639200    0.92338700
 C   22.99024700  -18.39250100    0.63136400
 F   22.98808100  -19.59184200    0.02980500
 F   23.71790300  -17.58321100   -0.17222100
 F   23.74371300  -18.54425200    1.74450200
 C   21.55370500  -16.59354500    1.55670600
 C   20.32875600  -16.05268100    1.84689700
 C   19.15678600  -16.74560000    1.50772600
 N   17.94396100  -16.20379100    1.81456900
 C   16.87473200  -16.85198300    1.46722100
 C   15.51438900  -16.25805000    1.85016200
 O   15.38118200  -15.02783400    1.78694000
 O   14.63711400  -17.09023400    2.18770600
29
-89.34172660636
 F   15.41563800  -23.74054100   -2.00785300
 C   16.66781200  -24.15094300   -1.68641000
 F   16.50246000  -25.36891900   -1.12688600
 F   17.28162200  -24.37158900   -2.86172900
 C   17.38402100  -23.18685100   -0.79740500
 C   18.41144500  -22.39018000   -1.28862400
 C   19.03726300  -21.49814300   -0.44071600
 C   18.65160800  -21.38607600    0.89272100
 C   17.62214000  -22.18874400    1.36986300
 C   16.98685100  -23.08535900    0.52991700
 C   19.37579100  -20.40013500    1.77720400
 N   18.80460500  -20.25923800    3.09294400
 C   17.86906000  -19.33731700    3.36678100
 N   17.67618500  -18.34286800    2.51428100
 C   16.78863800  -17.38667900    2.85871900
 C   16.56865700  -16.30028500    1.99150400
 C   15.66730900  -15.32842600    2.35099600
 C   15.40629200  -14.16119700    1.45184600
 F   16.19731500  -14.10993500    0.36912700
 F   14.13860200  -14.13996500    0.97725300
 F   15.56299000  -12.97211900    2.07509100
 C   14.95261100  -15.39025600    3.55990300
 C   15.15108200  -16.44550200    4.41101000
 C   16.06596300  -17.45556400    4.07698100
 N   16.24156000  -18.50965900    4.92361100
 C   17.11257000  -19.41694100    4.60451800
 C   17.27302300  -20.62154400    5.53932800
 O   17.18136600  -20.42317500    6.75901000
 O   17.49784000  -21.71972200    4.97421300
29
-89.34131480619
 F   12.62118400  -19.78367300    2.21188200
 C   13.44768900  -20.80004600    1.86037100
 F   13.03592200  -21.85330000    2.59763100
 F   13.12581700  -21.09446900    0.58893100
 C   14.89117600  -20.46778500    2.06244000
 C   15.70096000  -20.14975600    0.98038900
 C   17.02969300  -19.83403200    1.19927700
 C   17.55334800  -19.82579000    2.48610900
 C   16.72834200  -20.13988100    3.56138600
 C   15.40062800  -20.46102500    3.35666700
 C   19.01707500  -19.55305700    2.71985100
 N   19.75847800  -20.79921600    2.75283700
 C   19.88929600  -21.53109100    3.86483400
 N   19.50753000  -21.01918500    5.02657700
 C   19.68823900  -21.76893700    6.13245600
 C   19.29743500  -21.26188700    7.38609800
 C   19.47357400  -22.03695400    8.50614000
 C   19.05845200  -21.53255100    9.85239500
 F   18.68461600  -20.24356400    9.86734900
 F   18.01097700  -22.21929400   10.36761100
 F   20.03467100  -21.64111700   10.77968100
 C   20.02995200  -23.32591500    8.43635400
 C   20.41239600  -23.83410800    7.22247500
 C   20.24961000  -23.06932200    6.05762800
 N   20.63348000  -23.58478800    4.85586300
 C   20.48180100  -22.85666500    3.79248800
 C   20.93475900  -23.45315900    2.45420500
 O   21.86897300  -24.26745700    2.48004400
 O   20.32589500  -23.05488600    1.43068400
29
-89.34130350162
 F   13.90999900  -25.73471100    2.93565800
 C   15.15612900  -26.18237900    2.63673500
 F   15.57671200  -26.82111700    3.74377600
 F   14.96989600  -27.14236500    1.70939700
 C   16.07098900  -25.08913400    2.18678500
 C   16.04684200  -24.68737100    0.85586500
 C   16.86841200  -23.65574200    0.44410400
 C   17.70820800  -23.01565400    1.34960700
 C   17.71873200  -23.42558200    2.67720400
 C   16.90446500  -24.45933200    3.10214200
 C   18.54257200  -21.84471400    0.89795000
 N   17.75598900  -20.62657500    0.92413800
 C   16.99892700  -20.23452100   -0.10619300
 N   17.10139200  -20.87119000   -1.26478000
 C   16.36352000  -20.41793600   -2.29799800
 C   16.44708300  -21.06375700   -3.54599900
 C   15.68684400  -20.60025000   -4.59166000
 C   15.76268200  -21.25402100   -5.93546400
 F   16.47770100  -22.38969500   -5.95680500
 F   14.54878200  -21.57677400   -6.43301700
 F   16.32259200  -20.45544300   -6.87479000
 C   14.82982200  -19.49484800   -4.45257200
 C   14.73443000  -18.85908100   -3.24234700
 C   15.49255800  -19.30823700   -2.15051600
 N   15.38251900  -18.67526100   -0.94866300
 C   16.10594000  -19.09672100    0.04274000
 C   15.96867100  -18.36191700    1.38195300
 O   15.64122600  -17.16694300    1.34530700
 O   16.21308200  -19.03245800    2.41520300
29
-89.34128406018
 F   15.39026100  -25.51826200    2.96686200
 C   16.73337400  -25.35029400    2.86788200
 F   17.12029100  -24.89274700    4.07278700
 F   17.23395800  -26.59765400    2.76938400
 C   17.12141600  -24.46077800    1.73072500
 C   17.24702400  -25.00087700    0.45661100
 C   17.58490900  -24.17528700   -0.59960700
 C   17.79052900  -22.81584900   -0.39717800
 C   17.65384600  -22.28808400    0.88236000
 C   17.32027600  -23.10251300    1.94777400
 C   18.22594300  -21.92453700   -1.53184500
 N   19.67068600  -21.79683700   -1.54570200
 C   20.32079700  -20.88238900   -0.81748200
 N   19.63038600  -19.93279600   -0.20196400
 C   20.31975900  -19.00949600    0.49848000
 C   19.62432600  -17.98468300    1.16741400
 C   20.33286000  -17.05799400    1.89222400
 C   19.62744300  -15.95489500    2.61651700
 F   18.29531200  -15.95091100    2.45482200
 F   19.83150100  -15.99196000    3.95363100
 F   20.04491800  -14.72638600    2.23560100
 C   21.73449100  -17.10474500    1.98763200
 C   22.42492900  -18.09825700    1.34392800
 C   21.73402400  -19.06008000    0.59182000
 N   22.43133400  -20.04101400   -0.04802200
 C   21.77234400  -20.91728500   -0.74181600
 C   22.57673600  -22.00311300   -1.46688300
 O   22.00466100  -23.11032200   -1.61958000
 O   23.71495400  -21.70545600   -1.85708600
29
-89.34128154364
 F   11.66314100  -21.38036400    1.91207200
 C   12.45813400  -22.37281400    1.43831400
 F   12.29789000  -23.39230000    2.30711900
 F   11.87919800  -22.77565300    0.29355200
 C   13.88276700  -21.94790200    1.28160700
 C   14.37709000  -21.59426700    0.03299900
 C   15.68943300  -21.17299900   -0.08106700
 C   16.51032500  -21.10155600    1.03767100
 C   16.00172000  -21.45961100    2.28192500
 C   14.69180400  -21.87902500    2.41071500
 C   17.91689700  -20.57207900    0.92817900
 N   17.93804000  -19.14771900    1.20115700
 C   18.03619200  -18.65228700    2.43973100
 N   18.31558800  -19.47009800    3.44514300
 C   18.44318900  -18.93184400    4.67471100
 C   18.74222700  -19.76514700    5.76913800
 C   18.85480300  -19.21115400    7.02074500
 C   19.17962500  -20.06488400    8.20595700
 F   19.27648300  -21.37523200    7.93294500
 F   20.35317100  -19.72707800    8.78875700
 F   18.26055400  -19.96471400    9.19267400
 C   18.67941500  -17.83393500    7.24099600
 C   18.38539400  -17.01073400    6.18559900
 C   18.26472200  -17.54180600    4.89270800
 N   17.97577200  -16.71311500    3.85009400
 C   17.87590300  -17.22453700    2.66168800
 C   17.56614500  -16.27007000    1.50184600
 O   16.93421900  -16.75749500    0.53224100
 O   17.97106600  -15.10285400    1.60031800
29
-89.34128113709
 F   12.52086300  -22.78773400    2.51587500
 C   13.39946400  -23.27299700    1.60243800
 F   13.11604800  -24.58815800    1.51044900
 F   13.02299600  -22.73594700    0.42823700
 C   14.82296100  -22.99769600    1.96658800
 C   15.49118600  -21.91479500    1.40829300
 C   16.79653000  -21.65828400    1.78314600
 C   17.43799000  -22.46693800    2.71511700
 C   16.75617700  -23.54515800    3.26679500
 C   15.45182400  -23.81568700    2.89777600
 C   18.83293100  -22.12378500    3.17061800
 N   18.78378500  -21.13790800    4.23342500
 C   18.73692500  -19.82261400    3.99477900
 N   18.93625200  -19.37981900    2.76117500
 C   18.92544700  -18.04616300    2.56359700
 C   19.13895400  -17.53515900    1.26951100
 C   19.11311500  -16.17604600    1.07393800
 C   19.34868000  -15.59762100   -0.28580400
 F   19.45412200  -16.51083000   -1.26360900
 F   18.36609300  -14.75585900   -0.67652200
 F   20.48324300  -14.86214400   -0.35198200
 C   18.88047200  -15.27900000    2.13094000
 C   18.66824800  -15.76210300    3.39569900
 C   18.68772300  -17.14477700    3.63243900
 N   18.47554900  -17.61421100    4.89418200
 C   18.50840900  -18.89620900    5.09192800
 C   18.27637800  -19.40052700    6.52157800
 O   17.76681500  -20.54262500    6.63452600
 O   18.61772500  -18.65566100    7.45172400
29
-89.34127739601
 F   13.25485100  -22.63306600    3.20289100
 C   14.13246400  -22.76080400    2.17607900
 F   13.92815300  -24.00493800    1.69732600
 F   13.68584500  -21.92273900    1.22360400
 C   15.54684200  -22.50973400    2.59041800
 C   16.13214000  -21.26959600    2.36630400
 C   17.43398800  -21.05147500    2.77614100
 C   18.15638900  -22.05874500    3.40682500
 C   17.55641300  -23.29268700    3.62787300
 C   16.25382600  -23.52309200    3.22661800
 C   19.59876400  -21.82522500    3.77715500
 N   20.45748400  -22.08954100    2.63844800
 C   20.72494900  -21.16761300    1.70669100
 N   20.36792200  -19.90860300    1.91895500
 C   20.67694300  -19.00078900    0.97126800
 C   20.31956700  -17.65225100    1.15887300
 C   20.61882700  -16.73772800    0.17899800
 C   20.26720100  -15.29376900    0.35391300
 F   19.51190800  -15.03662200    1.43320300
 F   21.35836500  -14.50161900    0.47794600
 F   19.58732500  -14.78598300   -0.69740900
 C   21.27516500  -17.10921100   -1.00726700
 C   21.62892600  -18.41843100   -1.20429400
 C   21.34039400  -19.37957100   -0.22375000
 N   21.70642800  -20.67655600   -0.42619700
 C   21.43560600  -21.54736900    0.49705100
 C   21.87886400  -22.99658500    0.26191400
 O   22.90805100  -23.17684800   -0.40480100
 O   21.16432000  -23.88832500    0.78225000
29
-89.34125271447
 F   14.36487100  -24.22595000   -0.26549500
 C   15.67014900  -23.88646300   -0.38183700
 F   16.27926900  -25.00529400   -0.83957500
 F   15.72363000  -23.00496200   -1.39388000
 C   16.25647100  -23.38711600    0.89946000
 C   16.79184200  -22.10897600    0.99087300
 C   17.32834600  -21.68493900    2.19261900
 C   17.33683300  -22.52442100    3.30069000
 C   16.79770100  -23.80152000    3.19411800
 C   16.25576600  -24.23704500    2.00000400
 C   17.99625500  -22.07500900    4.57926300
 N   19.41010200  -22.39719700    4.54960200
 C   20.31885400  -21.59524900    3.98316700
 N   19.96391500  -20.37284500    3.61303700
 C   20.91427800  -19.57801500    3.08085000
 C   20.58037500  -18.27076300    2.67948300
 C   21.54996800  -17.47364800    2.12222500
 C   21.23298000  -16.07718400    1.68793500
 F   19.95190100  -15.72005200    1.86710600
 F   21.96534000  -15.14628700    2.34171700
 F   21.49105900  -15.86429200    0.37751300
 C   22.86832000  -17.92629500    1.94025300
 C   23.20793500  -19.19683500    2.32529900
 C   22.24360100  -20.03814100    2.90025600
 N   22.59357200  -21.29855500    3.28266800
 C   21.68729300  -22.05723500    3.81822200
 C   22.10631500  -23.46694600    4.25324900
 O   21.21307900  -24.34886000    4.22058200
 O   23.28133200  -23.62680600    4.61400800
29
-89.3410099139
 F   13.80269400  -25.11779600    3.41001300
 C   14.98020500  -25.38756400    2.79184100
 F   15.52698500  -26.39027400    3.50865000
 F   14.64090200  -25.92617700    1.60666500
 C   15.86377500  -24.18682900    2.68264100
 C   15.89404700  -23.44748700    1.50650700
 C   16.70260800  -22.32956200    1.42920600
 C   17.48044100  -21.94049300    2.51519000
 C   17.43780400  -22.68816800    3.68507200
 C   16.63166600  -23.80738000    3.77704500
 C   18.38576300  -20.73946600    2.39560800
 N   19.24872500  -20.84235000    1.23724400
 C   20.25230300  -21.72988900    1.20158800
 N   20.61946800  -22.32847000    2.32468000
 C   21.67314400  -23.16820000    2.26845100
 C   22.10596200  -23.81667500    3.44016500
 C   23.18071700  -24.66921400    3.37578300
 C   23.65970400  -25.38266800    4.60072300
 F   23.07653300  -24.97667900    5.73926400
 F   23.44946000  -26.71935900    4.54255200
 F   24.98868400  -25.24919700    4.80288000
 C   23.85863800  -24.91793400    2.16960600
 C   23.44356800  -24.30031800    1.01908500
 C   22.34997700  -23.42143700    1.04793900
 N   21.93719700  -22.82522900   -0.10588200
 C   20.93765800  -21.99908800   -0.05068100
 C   20.47331300  -21.35056700   -1.36117500
 O   19.25437400  -21.05649900   -1.43291600
 O   21.32654200  -21.15857600   -2.23897700
29
-89.34097962371
 F   16.37417200  -26.99733200    3.73406400
 C   16.67752100  -26.14275500    2.72502600
 F   17.97524100  -26.38284300    2.44240600
 F   15.98424100  -26.58929600    1.66320300
 C   16.40278000  -24.71543000    3.07199100
 C   15.27354700  -24.06956800    2.58233000
 C   15.03628700  -22.75778300    2.94209100
 C   15.91018700  -22.07798700    3.78677000
 C   17.03320300  -22.73841700    4.26940500
 C   17.28207300  -24.05239500    3.91884600
 C   15.61438100  -20.64358200    4.14505100
 N   16.48220400  -20.10742400    5.16010300
 C   17.50883500  -19.29664700    4.89483900
 N   17.62834500  -18.78270700    3.67586800
 C   18.58529200  -17.85590000    3.47827400
 C   18.72833400  -17.26165100    2.20960100
 C   19.67682500  -16.28515700    2.03141700
 C   19.84814700  -15.62260500    0.70088300
 F   19.06067000  -16.11468600   -0.26790400
 F   19.58911000  -14.29473800    0.73999900
 F   21.11119200  -15.71538900    0.22708500
 C   20.51254000  -15.86031600    3.07967800
 C   20.39536600  -16.43862400    4.31592700
 C   19.44357200  -17.44722000    4.53255000
 N   19.38164600  -18.06445900    5.74318600
 C   18.46916100  -18.96818700    5.93598500
 C   18.51676600  -19.73295600    7.26598000
 O   19.56029000  -19.64553000    7.93018500
 O   17.50833400  -20.41665900    7.57232200
29
-89.34095595932
 F   16.87550600  -24.97241600   -0.94444300
 C   17.67607000  -24.12547200   -1.63912900
 F   18.63750900  -24.91117700   -2.16853000
 F   16.93465900  -23.70726200   -2.67944000
 C   18.21915900  -23.01851600   -0.79411200
 C   17.69121100  -21.73736700   -0.88366700
 C   18.19385100  -20.73967600   -0.06823400
 C   19.21641800  -21.00912400    0.83288700
 C   19.73593100  -22.29727000    0.91127800
 C   19.24108400  -23.30393300    0.10521400
 C   19.71704900  -19.94327500    1.77357800
 N   19.02493800  -20.03788000    3.04320200
 C   19.44172300  -20.81374800    4.04470000
 N   20.63263200  -21.39676600    3.95869800
 C   21.08238600  -22.06860900    5.03518800
 C   22.34904000  -22.68248400    4.99377000
 C   22.81269900  -23.33500000    6.10928700
 C   24.15456000  -23.99688200    6.10269000
 F   24.85019600  -23.82534200    4.96791700
 F   24.96142200  -23.55842700    7.09492800
 F   24.07833800  -25.33617200    6.28322200
 C   22.05699900  -23.41250300    7.29273900
 C   20.81708900  -22.83197000    7.34417200
 C   20.30779600  -22.16224000    6.22088900
 N   19.05336100  -21.63825500    6.26132100
 C   18.61009800  -20.99456600    5.22407500
 C   17.15573600  -20.50769400    5.28373600
 O   16.75041000  -19.78463400    4.33907700
 O   16.47489300  -20.87610500    6.25205200
29
-89.34093253577
 F   13.33152300  -23.10224600    2.27230700
 C   14.08386200  -24.05718800    1.67127100
 F   14.02017500  -25.12281100    2.49842400
 F   13.39783200  -24.40898900    0.57047800
 C   15.48238800  -23.60674100    1.39830600
 C   15.89650000  -23.30682500    0.10619100
 C   17.19404900  -22.88428100   -0.10652700
 C   18.08549800  -22.74991300    0.95433600
 C   17.65311900  -23.04574300    2.24147600
 C   16.35864300  -23.47350900    2.46853400
 C   19.48980500  -22.27538700    0.68304700
 N   20.39988800  -22.52147100    1.77096800
 C   20.83861000  -21.56673900    2.59362600
 N   20.58785500  -20.29589900    2.30046400
 C   21.15697600  -19.35087000    3.07309900
 C   20.93740100  -17.99009800    2.78500500
 C   21.55985400  -17.03524700    3.55049200
 C   21.34406600  -15.58039200    3.27583400
 F   20.62816700  -15.32686600    2.16932600
 F   20.69277800  -14.94972300    4.28171100
 F   22.49956900  -14.89538000    3.12790500
 C   22.40822800  -17.37604900    4.61898200
 C   22.62026400  -18.69533000    4.92103500
 C   21.99359500  -19.69870300    4.16593500
 N   22.15397300  -21.00349600    4.51670900
 C   21.59447400  -21.91859300    3.78477300
 C   21.68892700  -23.36655700    4.28424800
 O   21.43313600  -24.27644900    3.45692700
 O   21.98274200  -23.53336000    5.47748000
29
-89.34092733055
 F   14.39552100  -27.05609800    2.39044800
 C   15.68214700  -26.76647500    2.71206800
 F   15.82225700  -27.17048600    3.98894000
 F   16.42762100  -27.61228400    1.97562700
 C   16.02153100  -25.32655600    2.50008700
 C   16.48547200  -24.90726600    1.26035100
 C   16.77450900  -23.57033100    1.05631000
 C   16.60439700  -22.64445900    2.07788500
 C   16.13423900  -23.08033700    3.31443800
 C   15.83870800  -24.41115100    3.53103500
 C   16.90563500  -21.18051000    1.88274600
 N   17.59525700  -20.89162500    0.65327500
 C   17.01533100  -20.31582800   -0.40143400
 N   15.79740800  -19.80268300   -0.27244100
 C   15.30074300  -19.10312800   -1.31107800
 C   14.02431300  -18.51752400   -1.20897100
 C   13.54873800  -17.76335300   -2.25311400
 C   12.19949400  -17.12124600   -2.17757400
 F   11.54785800  -17.33646400   -1.02439000
 F   12.24926100  -15.77724800   -2.32225900
 F   11.36258600  -17.54405600   -3.15307200
 C   14.29844400  -17.56059100   -3.42539500
 C   15.53545300  -18.13666200   -3.54625700
 C   16.04965300  -18.92254100   -2.50337500
 N   17.24570500  -19.55226700   -2.66260800
 C   17.72040200  -20.24282500   -1.67095900
 C   18.99404700  -21.05894400   -1.92614600
 O   19.24558800  -21.35660200   -3.10359100
 O   19.66777800  -21.39600200   -0.92138300
29
-89.34091584391
 F   13.60728400  -23.12416300    1.31179700
 C   14.33102100  -24.03222800    0.60877000
 F   13.78936400  -25.22559500    0.91952100
 F   14.01582500  -23.81099400   -0.68126700
 C   15.79584100  -23.95002100    0.89363400
 C   16.60116800  -23.12076400    0.12465400
 C   17.95150200  -23.02653100    0.40875500
 C   18.50788100  -23.75111400    1.45493400
 C   17.68594200  -24.57564900    2.21950100
 C   16.33624400  -24.67700400    1.94908500
 C   19.97547900  -23.66466200    1.79067300
 N   20.75370500  -22.95816700    0.80781200
 C   21.15659300  -21.69475200    0.95907100
 N   21.01729600  -21.10741400    2.14178400
 C   21.56564200  -19.88725300    2.30185800
 C   21.46647800  -19.23738400    3.54703900
 C   22.07238300  -18.01671500    3.71483800
 C   21.99223400  -17.29961300    5.02547600
 F   21.33859200  -17.97205000    5.98537200
 F   23.20882300  -17.01584900    5.54361800
 F   21.36815300  -16.10251200    4.93045300
 C   22.78661700  -17.39254600    2.67678000
 C   22.87876600  -18.00469600    1.45465900
 C   22.26454400  -19.24881000    1.24403600
 N   22.29878500  -19.81442500    0.00664200
 C   21.75573200  -20.98221500   -0.15760800
 C   21.68041700  -21.52743400   -1.58967200
 O   21.50958300  -22.76436600   -1.72306800
 O   21.75846900  -20.70094900   -2.51122700
29
-89.34091173323
 F   13.62812200  -25.01054700    2.27809100
 C   14.84483700  -24.84640400    2.85627300
 F   14.65016000  -25.12843200    4.16031900
 F   15.60412900  -25.84706300    2.37483000
 C   15.41763800  -23.48565700    2.62437200
 C   16.31498000  -23.27599600    1.58597700
 C   16.81752600  -22.00664700    1.36537800
 C   16.42813600  -20.94023100    2.16595300
 C   15.52359900  -21.16595900    3.20065800
 C   15.01680700  -22.42844600    3.43459700
 C   16.96912300  -19.55032100    1.95164000
 N   17.63100500  -19.38087900    0.68482000
 C   18.95265500  -19.25084700    0.55297900
 N   19.69996200  -19.09209400    1.63897600
 C   21.00986900  -18.83056100    1.46476500
 C   21.83411000  -18.62597800    2.58781600
 C   23.15741800  -18.31195000    2.39840500
 C   24.06168500  -18.09420300    3.57039100
 F   23.43118000  -18.05355400    4.75459300
 F   25.00043400  -19.06283500    3.69296400
 F   24.76143400  -16.94143900    3.48938900
 C   23.71712700  -18.19594300    1.11374000
 C   22.93134400  -18.40609100    0.01132500
 C   21.57585900  -18.73409500    0.16656800
 N   20.81869400  -19.00323300   -0.93192500
 C   19.55845700  -19.26926500   -0.76886500
 C   18.76608900  -19.69138100   -2.01291200
 O   19.41715400  -20.11098300   -2.98138200
 O   17.51412500  -19.61019500   -1.94873500
29
-89.34085413961
 F   17.45764500  -27.60068500   -1.52867900
 C   18.73079200  -27.17825800   -1.32098800
 F   19.33054500  -28.18976800   -0.66410400
 F   19.29457000  -27.14677200   -2.54266000
 C   18.79460900  -25.87394000   -0.59336000
 C   18.84606800  -24.68467200   -1.31112800
 C   18.88328700  -23.48417200   -0.62972400
 C   18.87045700  -23.45427800    0.76091300
 C   18.81192300  -24.65148200    1.46391300
 C   18.76914400  -25.86103600    0.79550000
 C   18.93768600  -22.13325600    1.48151900
 N   20.03346500  -21.32150000    1.00066100
 C   19.87236400  -20.29575400    0.15875700
 N   18.64773800  -19.86209600   -0.10915600
 C   18.52306800  -18.80680300   -0.93871300
 C   17.24175500  -18.31097100   -1.24520500
 C   17.12385300  -17.24733100   -2.10609100
 C   15.77703100  -16.68681100   -2.43896300
 F   14.74737600  -17.43216500   -2.00763200
 F   15.57817400  -15.45532800   -1.91100100
 F   15.58458800  -16.53029300   -3.76661300
 C   18.24740400  -16.63505900   -2.68810200
 C   19.50116500  -17.10670400   -2.39918500
 C   19.65953400  -18.19163200   -1.52395300
 N   20.91191700  -18.64820200   -1.24078400
 C   21.03738900  -19.64778500   -0.42314100
 C   22.45802200  -20.13300800   -0.10898100
 O   23.36952200  -19.29418400   -0.15573000
 O   22.58131700  -21.34766700    0.18457300
29
-89.34077919715
 F   14.48378700  -19.70240300   -1.77232000
 C   15.76038800  -19.79883100   -2.22675300
 F   15.82245300  -21.00109500   -2.83814500
 F   15.85983200  -18.88637500   -3.20884200
 C   16.76401000  -19.63260800   -1.13373700
 C   17.40596700  -18.41563800   -0.94317400
 C   18.23176900  -18.24900400    0.15196100
 C   18.41360700  -19.27946800    1.06651600
 C   17.82506000  -20.51712800    0.81948100
 C   16.98978800  -20.69439100   -0.26442100
 C   19.19226600  -19.06433200    2.33874400
 N   18.41779600  -19.47747000    3.49511400
 C   17.10129200  -19.28259800    3.58257000
 N   16.49736800  -18.59310800    2.62433800
 C   15.15355000  -18.59396300    2.60119900
 C   14.48140300  -17.98621300    1.52512100
 C   13.11501000  -18.08839800    1.44743600
 C   12.37901400  -17.49610600    0.28764700
 F   13.17416800  -17.00492100   -0.67552800
 F   11.56094100  -18.38014300   -0.32270700
 F   11.57120800  -16.46833800    0.64643400
 C   12.36574900  -18.75264000    2.43480500
 C   13.00494900  -19.32482300    3.50421700
 C   14.40273900  -19.25880500    3.60552900
 N   15.03784200  -19.81110200    4.67720800
 C   16.33608300  -19.82351800    4.69212900
 C   17.03872800  -20.40738600    5.92343800
 O   18.17719000  -20.90088800    5.73074900
 O   16.44530100  -20.33750900    7.00934800
29
-89.34077360396
 F   16.77742600  -23.56180500    6.60761300
 C   17.78116900  -24.12719600    5.88740400
 F   18.68212500  -24.53987400    6.79774400
 F   17.24832700  -25.25108400    5.36623900
 C   18.33742700  -23.19469800    4.86233000
 C   17.69632000  -23.07440000    3.63447900
 C   18.13549300  -22.12839000    2.73070700
 C   19.18814600  -21.27522200    3.05114000
 C   19.85968500  -21.45166300    4.25514000
 C   19.43720000  -22.40136500    5.16507700
 C   19.55185400  -20.15241900    2.11429900
 N   18.38154900  -19.36741900    1.76588400
 C   17.40911500  -19.09967500    2.63826100
 N   17.56337400  -19.48089300    3.89884500
 C   16.49475800  -19.41237300    4.71128000
 C   16.58552300  -19.92729400    6.01738000
 C   15.46090800  -19.95633700    6.80348800
 C   15.51321600  -20.54680000    8.17696800
 F   16.71612300  -21.02909800    8.52434600
 F   15.18789200  -19.65627500    9.14468700
 F   14.64347500  -21.56774500    8.34237100
 C   14.22736600  -19.45668000    6.34900400
 C   14.13075500  -18.92583300    5.08877800
 C   15.25610400  -18.89377200    4.25154000
 N   15.16830300  -18.34121300    3.00917700
 C   16.19683400  -18.41732700    2.22064000
 C   16.10614400  -17.74425700    0.84598500
 O   15.36538400  -16.75619900    0.73966800
 O   16.81032300  -18.24498000   -0.06504000
29
-89.34076825258
 F   15.40776000  -23.55358600    6.33201200
 C   16.51427300  -24.16092400    5.82869400
 F   17.17551100  -24.63450800    6.90208300
 F   16.05383100  -25.24597500    5.17620800
 C   17.32679900  -23.24281400    4.97614300
 C   17.05764700  -23.14966800    3.61570400
 C   17.73292300  -22.21720700    2.85406700
 C   18.65326100  -21.35306100    3.44047500
 C   18.95486000  -21.49913900    4.78945100
 C   18.29333100  -22.43375900    5.56177200
 C   19.27114100  -20.25032200    2.61982000
 N   18.25039200  -19.48591000    1.92743300
 C   17.08255700  -19.17799500    2.49320100
 N   16.88610200  -19.51034200    3.76180400
 C   15.64334600  -19.38566100    4.25886900
 C   15.37075900  -19.84220500    5.56144500
 C   14.08008800  -19.80277400    6.02642600
 C   13.74918200  -20.32695600    7.38793000
 F   14.80208600  -20.81104900    8.06383700
 F   13.20284900  -19.38608000    8.19470800
 F   12.83873600  -21.32567200    7.35780800
 C   13.02732800  -19.29203800    5.24625800
 C   13.28190800  -18.82211700    3.98389500
 C   14.58678100  -18.86052600    3.46971000
 N   14.84366200  -18.37178000    2.22420700
 C   16.04059400  -18.50414100    1.73877400
 C   16.32901600  -17.90676400    0.35647100
 O   17.23694400  -18.46182500   -0.31016900
 O   15.66356200  -16.92081500    0.00830700
29
-89.34076391829
 F   11.52212700  -22.05987200    1.86781900
 C   12.18129600  -21.27987100    0.99079600
 F   12.05923600  -21.90814100   -0.20770800
 F   11.44377000  -20.15729400    0.87556900
 C   13.60727400  -21.02880900    1.35586800
 C   14.24144200  -19.88534200    0.88348800
 C   15.58909000  -19.70970200    1.12381700
 C   16.32159800  -20.67991700    1.80247500
 C   15.66071700  -21.78689200    2.32176700
 C   14.31002300  -21.97033700    2.09779800
 C   17.81627100  -20.53681400    1.92853700
 N   18.42594900  -20.28213500    0.63653400
 C   18.00346000  -20.86524500   -0.48592500
 N   17.04242100  -21.77536900   -0.40671900
 C   16.47610400  -22.19246100   -1.55226500
 C   15.36938900  -23.05953300   -1.50004900
 C   14.73201900  -23.40014500   -2.66685000
 C   13.51703100  -24.27234100   -2.63803700
 F   13.18341000  -24.71322800   -1.41549900
 F   12.41627900  -23.65193700   -3.11959500
 F   13.64814300  -25.38330000   -3.40049900
 C   15.17322700  -22.92851700   -3.91609300
 C   16.26484100  -22.10203800   -3.98448700
 C   16.93167700  -21.71993800   -2.81070800
 N   18.03174100  -20.91862100   -2.88027800
 C   18.57082700  -20.50584700   -1.77376200
 C   19.84119600  -19.65177400   -1.86152900
 O   20.59017400  -19.83751700   -2.83154200
 O   20.02944500  -18.83848700   -0.92371600
29
-89.3407581061
 F   12.89754100  -21.64211200   -0.36568300
 C   13.99511900  -22.02794200   -1.06773100
 F   13.88984200  -23.36816300   -1.17371100
 F   13.80708100  -21.54865300   -2.31093500
 C   15.26534800  -21.57357000   -0.42763100
 C   15.84115100  -20.36579800   -0.80225800
 C   16.94314800  -19.89728000   -0.11355100
 C   17.46991700  -20.61484600    0.95381700
 C   16.92689900  -21.85733500    1.26963600
 C   15.81935500  -22.33258300    0.59706600
 C   18.58410500  -20.05010200    1.79666500
 N   18.23964200  -20.08804700    3.20606100
 C   17.00605100  -19.84150500    3.64940200
 N   16.08418800  -19.45506700    2.77820700
 C   14.80575600  -19.41629000    3.19185500
 C   13.78762100  -19.13420800    2.26288600
 C   12.47763700  -19.19838800    2.66737000
 C   11.37137200  -18.95713800    1.68974900
 F   11.78636300  -18.69077600    0.44194400
 F   10.52862900  -20.00827200    1.58236800
 F   10.57992000  -17.91432700    2.03788000
 C   12.12714100  -19.50888300    3.99337000
 C   13.10958200  -19.76159900    4.91550900
 C   14.45908300  -19.72203200    4.53382100
 N   15.43645300  -19.95275000    5.45496200
 C   16.66991300  -20.00311200    5.05307000
 C   17.76575600  -20.21448900    6.10457200
 O   17.55086500  -19.79054300    7.24924200
 O   18.80884700  -20.79140200    5.71010200
29
-89.34075546757
 F   14.70922700  -22.10049200   -3.21042100
 C   15.14876100  -22.78742400   -2.13982300
 F   14.04053000  -23.18575300   -1.48263500
 F   15.68973400  -23.92739700   -2.64318000
 C   16.11385700  -22.03110200   -1.28765900
 C   16.91035300  -21.04042900   -1.84869300
 C   17.88820300  -20.43965200   -1.07976500
 C   18.08974600  -20.82660200    0.23979700
 C   17.23485700  -21.76689400    0.80882400
 C   16.26036000  -22.38219100    0.04962300
 C   19.24091000  -20.28063100    1.04478000
 N   20.01887600  -21.35737100    1.62947100
 C   20.26333400  -22.49756700    0.98293000
 N   19.85454200  -22.61463600   -0.27310500
 C   19.89809500  -23.83386500   -0.83722200
 C   19.35477200  -24.02102000   -2.12136700
 C   19.30190700  -25.28812900   -2.64600400
 C   18.68386600  -25.52479700   -3.98760600
 F   17.67782400  -26.42536300   -3.95133300
 F   18.17160200  -24.42430400   -4.55988200
 F   19.56282000  -26.02463300   -4.88975500
 C   19.80556200  -26.39978300   -1.94725200
 C   20.36322100  -26.22839300   -0.70673100
 C   20.41997700  -24.94960100   -0.13216200
 N   21.00073100  -24.77326700    1.08767800
 C   20.94860600  -23.59836300    1.63744500
 C   21.65540200  -23.39766800    2.98329900
 O   22.63259400  -24.11928700    3.22973600
 O   21.19142900  -22.49825500    3.72650400
29
-89.34065472749
 F   19.97463900  -28.73910800   -0.10476700
 C   20.49589400  -27.73180900   -0.83994600
 F   21.83824900  -27.87489400   -0.72120100
 F   20.21340700  -28.03191900   -2.11848100
 C   20.01619800  -26.38404300   -0.40589300
 C   19.50931800  -25.47838900   -1.32951200
 C   19.09220700  -24.23469300   -0.89654000
 C   19.18132400  -23.88032500    0.44550700
 C   19.68976400  -24.79750600    1.35731900
 C   20.10568800  -26.04790700    0.93982500
 C   18.74672900  -22.50567400    0.88191700
 N   19.43429300  -21.47872400    0.13265500
 C   18.86892300  -20.76608400   -0.84188200
 N   17.56378600  -20.88380400   -1.05959200
 C   17.00265800  -20.05854800   -1.96436900
 C   15.61798100  -20.13285300   -2.20925500
 C   15.04871900  -19.25810700   -3.10147600
 C   13.57997100  -19.30381400   -3.38267300
 F   12.91257400  -20.23874100   -2.68882800
 F   12.95710100  -18.13437800   -3.11085800
 F   13.30317400  -19.54975000   -4.68409400
 C   15.80907500  -18.29031400   -3.78147300
 C   17.15970200  -18.21468200   -3.56396800
 C   17.77731500  -19.09801100   -2.66553900
 N   19.12859200  -19.05765300   -2.50423400
 C   19.67675700  -19.86136900   -1.64511400
 C   21.20891800  -19.87395900   -1.57257600
 O   21.72736300  -20.32453300   -0.52136200
 O   21.82357100  -19.46179500   -2.56784800
