42
-80.04678699399
 C   -1.62941800   10.04783600   14.37963400
 N   -1.07404100   12.13167900   16.07913600
 O   -2.22935800   12.53564800   13.94130400
 S   -1.14880500   11.76457200   14.57244900
 C   -2.91329200    9.68946800   14.74012400
 O    0.13622200   11.89528900   13.84440900
 C   -3.33580800    8.38760300   14.55326000
 O   -3.60495600    4.48706800   12.36693600
 C   -2.46859000    7.45443300   13.98401900
 O   -5.94949100    9.72272400   11.95726900
 C   -1.15571900    7.81056800   13.69431000
 C   -0.73806800    9.11595500   13.89539500
 C   -3.08434900    5.58623300   12.48130300
 N   -2.94370400    6.15615700   13.69850600
 C   -2.55807800    6.35614000   11.27654300
 C   -3.01816600    7.78296000   11.26568300
 C   -4.31869000    8.07004500   11.54289400
 C   -4.79643400    9.41334000   11.68660400
 O   -3.89644900   10.42228800   11.54386300
 C   -2.60307300   10.17580700   11.20928600
 C   -1.78253600   11.29058100   11.08433700
 C   -0.45291200   11.12691600   10.72791700
 C    0.02807700    9.83232700   10.45344700
 C   -0.77951200    8.73936300   10.59876300
 C   -2.11906000    8.87119900   11.00591900
 O    0.43255100   12.12549900   10.57350700
 C    0.05557600   13.44066200   10.93904800
 H   -0.21333800   11.73685300   16.42534400
 H   -3.56475200   10.45542900   15.13054800
 H   -4.34627600    8.10508500   14.80499300
 H   -0.46926600    7.07678200   13.30606500
 H    0.25976400    9.44488700   13.65257200
 H   -3.44014100    5.68174000   14.44460700
 H   -2.93241400    5.83852300   10.39071100
 H   -1.47267300    6.29153500   11.27576100
 H   -5.04588200    7.29510100   11.72645100
 H   -2.20703200   12.25056600   11.32542200
 H    1.05632300    9.73583000   10.14699200
 H   -0.37963200    7.76302700   10.38344000
 H    0.95129400   14.04178600   10.80587600
 H   -0.74830100   13.80900600   10.29745600
 H   -0.26094600   13.47079400   11.98611600
42
-80.04643160706
 C   -3.72539200    8.72623200   10.55338900
 N   -5.25447900   10.73959700    9.48353600
 O   -4.78855600    8.69648700    8.19865000
 S   -4.18036600    9.68218600    9.10614900
 C   -2.48178100    8.86662400   11.12890800
 O   -2.91313200   10.24537500    8.58413700
 C   -2.12234200    8.05346300   12.19259300
 O   -1.60463000    4.44213500   14.57836500
 C   -3.01634700    7.09139400   12.65048100
 O    0.51903200    7.88400700    8.71213800
 C   -4.30794900    7.02882800   12.12471700
 C   -4.65694400    7.84676500   11.06952300
 C   -1.66494900    5.24068700   13.65214900
 N   -2.65137400    6.16304000   13.64133700
 C   -0.60430900    5.18711100   12.56049000
 C   -0.89787800    5.72412100   11.19645200
 C   -0.01758500    6.56843100   10.59477500
 C   -0.25883000    7.14630700    9.30379300
 O   -1.44146200    6.86541100    8.69786200
 C   -2.33871000    6.01577300    9.26402900
 C   -3.53371800    5.84265200    8.57740100
 C   -4.50265100    4.99878200    9.09718100
 C   -4.21910700    4.25299200   10.25811900
 C   -3.04275700    4.43270100   10.93163700
 C   -2.08404600    5.35597200   10.47870500
 O   -5.72490500    4.82416600    8.56724900
 C   -6.10891100    5.60715200    7.44817900
 H   -4.76244700   11.49369400    9.93671500
 H   -1.80080600    9.58940900   10.70394800
 H   -1.15056400    8.15384000   12.64753000
 H   -5.01563900    6.31660100   12.51669000
 H   -5.62745100    7.80780600   10.60225200
 H   -3.34720700    6.00011800   14.36303100
 H   -0.34146100    4.12823300   12.47473000
 H    0.27584100    5.69493700   12.96200600
 H    0.89971200    6.87936800   11.06755400
 H   -3.68900600    6.43545900    7.69187400
 H   -4.96834400    3.56297700   10.60844700
 H   -2.84819200    3.87017300   11.83034900
 H   -7.17035100    5.41439700    7.31554100
 H   -5.93866300    6.67345000    7.62763800
 H   -5.55790800    5.30110000    6.55600800
42
-80.04571872465
 C   -1.80783400    7.27613800    9.72892700
 N    0.20066000    6.87709300    7.87630600
 O   -0.79690800    9.09564600    8.14828800
 S   -1.11728700    7.66297700    8.11812900
 C   -1.85792200    8.22755400   10.72415000
 O   -2.20733100    7.33779600    7.16508900
 C   -2.30960500    7.87873500   11.98673300
 O   -2.82683900    5.65689600   15.69048600
 C   -2.70604000    6.56957800   12.24147400
 O    0.45099800    3.52879900   11.37135500
 C   -2.72970300    5.63715300   11.20355700
 C   -2.26623800    5.99229000    9.95159900
 C   -2.36421800    6.14769900   14.67145800
 N   -3.09520800    6.16038800   13.53310000
 C   -0.97675700    6.77356600   14.64881900
 C   -0.17696500    6.38159800   13.44394900
 C   -0.15838200    5.08371300   13.03723800
 C    0.43271200    4.67769300   11.79638600
 O    0.97004800    5.64329500   11.00723600
 C    1.02479100    6.94029200   11.41015800
 C    1.57044300    7.84051700   10.50356100
 C    1.66506500    9.18102400   10.84602800
 C    1.26494700    9.59317200   12.13192700
 C    0.69912400    8.70646400   13.00463300
 C    0.52570900    7.35451000   12.65791400
 O    2.14265200   10.14673700   10.04401200
 C    2.44244000    9.83206600    8.69446500
 H   -0.04090800    5.90535700    7.75938800
 H   -1.52231000    9.22484400   10.48893400
 H   -2.34689200    8.61875100   12.76850300
 H   -3.06993200    4.63002800   11.38794700
 H   -2.24433200    5.28587500    9.13559400
 H   -3.93939800    5.60022000   13.58360600
 H   -0.47449100    6.43817400   15.55893300
 H   -1.09515800    7.85361300   14.70696800
 H   -0.65383400    4.30463000   13.59427800
 H    1.83421300    7.46757100    9.52857800
 H    1.39216900   10.63162800   12.38873300
 H    0.39203200    9.05247300   13.97708500
 H    2.71929900   10.77806600    8.23638600
 H    3.27250100    9.12528400    8.63416800
 H    1.56582700    9.41247600    8.19134600
42
-80.04563373169
 C   -2.62421000   11.14541000   16.12417600
 N   -0.46806000   11.92749400   17.59795700
 O   -2.69323800   12.86616100   18.06844400
 S   -1.78445300   12.47830900   16.97872500
 C   -3.08455800   10.07722100   16.86998600
 O   -1.59661400   13.55016900   15.97408200
 C   -3.60846000    8.97282300   16.22816100
 O   -3.93298400    5.93466000   12.92184900
 C   -3.63629100    8.93355900   14.83291100
 O    0.84784200   11.19329100   13.41935400
 C   -3.24812800   10.04779400   14.09616300
 C   -2.73051900   11.15388800   14.75077400
 C   -3.41224200    6.97521600   13.30118000
 N   -4.05863400    7.75352000   14.19622100
 C   -2.05427700    7.38201700   12.74250300
 C   -1.14994300    8.22187000   13.58657400
 C   -0.53583900    9.31471800   13.05866000
 C    0.26975900   10.20107800   13.84681500
 O    0.38245600    9.93978400   15.17491400
 C   -0.18562200    8.83451500   15.72865900
 C   -0.02938800    8.68714500   17.10110600
 C   -0.57459400    7.57949500   17.73292200
 C   -1.21708000    6.58956700   16.96373800
 C   -1.38220100    6.75166700   15.61633400
 C   -0.90428500    7.90142200   14.96264500
 O   -0.53497000    7.36032400   19.05718100
 C    0.06070200    8.33295100   19.90031400
 H    0.19213600   11.86038600   16.83644700
 H   -3.00682600   10.14341900   17.94317700
 H   -3.95638000    8.12679900   16.79839200
 H   -3.33471300   10.04582900   13.02191000
 H   -2.38525500   12.02899400   14.22045700
 H   -4.88298400    7.31030800   14.58949200
 H   -2.23780100    7.89163300   11.79420600
 H   -1.55059800    6.44091000   12.50188900
 H   -0.66129400    9.60744600   12.02921300
 H    0.46964900    9.48126300   17.63022100
 H   -1.58994800    5.71746300   17.47453600
 H   -1.88921000    5.99192000   15.04411800
 H   -0.11862300    7.98009400   20.91274100
 H    1.13405800    8.40491000   19.71267600
 H   -0.39468500    9.31643000   19.75741000
42
-80.0455212996
 C    2.13603700    4.60720000   10.84939000
 N    2.90870800    3.83711500    8.32669600
 O    4.58512900    4.58971500    9.96248600
 S    3.23241100    4.85653800    9.45125900
 C    1.74352500    5.66574100   11.63752000
 O    3.05487100    6.27892700    9.06709700
 C    0.80096300    5.46341200   12.63287500
 O   -2.88922100    4.13055100   14.49191500
 C    0.25543700    4.19672500   12.81786100
 O   -1.50141300    2.79632600    8.94890000
 C    0.73465500    3.11554900   12.07688500
 C    1.66784300    3.32940400   11.08130500
 C   -2.03392100    4.53066200   13.71623600
 N   -0.79733500    3.98147900   13.72847600
 C   -2.31412400    5.67205400   12.74899700
 C   -1.82109000    5.43262100   11.35424700
 C   -1.97552400    4.21150500   10.77606500
 C   -1.41332000    3.88572600    9.49873200
 O   -0.69949300    4.85044900    8.85710400
 C   -0.58219100    6.10414100    9.37396000
 C    0.16317200    7.00380000    8.62326500
 C    0.34899000    8.29668900    9.08879400
 C   -0.28783600    8.69391600   10.27924200
 C   -1.01696000    7.80101700   11.01421000
 C   -1.16264500    6.46442800   10.60265700
 O    1.08625600    9.23610200    8.47417200
 C    1.88193200    8.86429400    7.36084400
 H    2.00409700    4.09028900    7.95582200
 H    2.15977000    6.63852900   11.42914400
 H    0.48286500    6.28786400   13.24840800
 H    0.34041800    2.12569900   12.24465700
 H    2.02531700    2.53631300   10.44340800
 H   -0.72836500    3.14411500   14.29711700
 H   -1.87577700    6.57529600   13.16892900
 H   -3.39922700    5.80115800   12.73687100
 H   -2.48157500    3.40246100   11.27805100
 H    0.61934100    6.64586800    7.71612700
 H   -0.16145300    9.71482100   10.59911700
 H   -1.49120400    8.13647900   11.92085700
 H    2.48208900    9.74116600    7.13233000
 H    2.52977100    8.02069100    7.61825300
 H    1.25612200    8.60387400    6.50425200
42
-80.04550915943
 C   -4.21360700    7.64635400   12.74795800
 N   -4.36802700   10.38179700   12.44231800
 O   -6.40846800    9.00295900   12.51951300
 S   -5.03306800    9.05579200   11.99274800
 C   -4.29413500    6.41538000   12.13214500
 O   -4.98564200    8.77257200   10.53753000
 C   -3.59032200    5.34465400   12.65258000
 O   -0.00315100    3.46156500   14.55195300
 C   -2.79526200    5.53260500   13.78062300
 O   -1.61245200    9.46425000   11.12007500
 C   -2.78571600    6.75812500   14.43977900
 C   -3.49756700    7.82200300   13.91316500
 C   -0.62445700    4.43533500   14.15188000
 N   -1.96727900    4.47912100   14.23021800
 C    0.09714800    5.64484600   13.56350500
 C   -0.53964000    6.27713700   12.36486100
 C   -0.76464800    7.61704500   12.31911800
 C   -1.39466400    8.25966700   11.20141900
 O   -1.76734000    7.48633600   10.15408400
 C   -1.52678500    6.14557900   10.14698300
 C   -1.94169900    5.45620300    9.01295500
 C   -1.72079700    4.08875900    8.92287000
 C   -1.06444800    3.42545700    9.97704700
 C   -0.66266200    4.10939300   11.09134400
 C   -0.89215500    5.49119200   11.21602700
 O   -2.08336500    3.31896300    7.88356300
 C   -2.73759300    3.91211600    6.77327600
 H   -3.48555000   10.43631800   11.95243200
 H   -4.88350100    6.34167200   11.23153000
 H   -3.61911000    4.38252600   12.16560600
 H   -2.20100600    6.88184300   15.33697000
 H   -3.49537300    8.80412800   14.35851800
 H   -2.41634500    3.61919100   14.52405500
 H    1.09985000    5.29763500   13.30088100
 H    0.20037300    6.39160200   14.35169800
 H   -0.51274600    8.27458200   13.13469600
 H   -2.43520600    6.02437800    8.24269700
 H   -0.89186400    2.36686000    9.87710300
 H   -0.15944900    3.58276200   11.88516600
 H   -2.92908000    3.09203400    6.08589500
 H   -3.68037700    4.37506700    7.07298300
 H   -2.09900700    4.65828400    6.29614500
42
-80.04548942268
 C   -1.50929400    3.01972800   10.68522600
 N   -2.02887800    0.75315500    9.22247100
 O    0.29199200    1.52225900    9.54810700
 S   -1.07810200    1.97964900    9.28927900
 C   -2.46884400    3.99978000   10.52425700
 O   -1.17114600    2.88510900    8.11423100
 C   -2.74124100    4.86452300   11.56524200
 O   -1.77220900    7.44691500   15.07931600
 C   -2.03355500    4.74855000   12.76182500
 O    3.06622800    3.41927100   11.73964800
 C   -1.14716500    3.69269600   12.94927000
 C   -0.88214800    2.83013200   11.89781000
 C   -1.35683800    6.58220100   14.31865500
 N   -2.23351300    5.72343500   13.75538300
 C    0.14130000    6.48429100   14.06084900
 C    0.65869900    5.84819600   12.81061000
 C    1.63575500    4.90531700   12.88323600
 C    2.15926200    4.24086600   11.72353900
 O    1.60403900    4.54102500   10.52084400
 C    0.63147600    5.48306600   10.40998900
 C    0.10473900    5.67077800    9.13791400
 C   -0.88970500    6.61625500    8.94388400
 C   -1.28436100    7.43506800   10.01982900
 C   -0.76882200    7.23817400   11.27104000
 C    0.17480300    6.22477100   11.51316600
 O   -1.52524700    6.82728200    7.77811200
 C   -1.23587200    5.98484700    6.67429400
 H   -2.90638300    1.08988200    8.85681400
 H   -2.95222700    4.08972000    9.56433000
 H   -3.46584300    5.65273300   11.44074600
 H   -0.65491900    3.55902300   13.89863300
 H   -0.16320500    2.02878900   11.97729900
 H   -3.20074200    5.98158000   13.92646700
 H    0.56623500    5.96765100   14.92470800
 H    0.50197900    7.51655300   14.10673000
 H    2.05742300    4.58135400   13.82068900
 H    0.45216100    5.01732800    8.35527600
 H   -2.02120900    8.19702700    9.82808100
 H   -1.09609300    7.85864000   12.08951600
 H   -0.22646500    6.17043900    6.30027300
 H   -1.33151800    4.92772000    6.94226100
 H   -1.96850000    6.24688600    5.91526100
42
-80.04534680755
 C    0.25156100    4.19525500   11.85010700
 N    1.84422700    5.54661400   10.08414200
 O    1.50184500    3.12382700    9.85033600
 S    1.73190300    4.19331800   10.83633700
 C    0.31435600    3.91326400   13.19733900
 O    2.84827400    3.87973700   11.75835200
 C   -0.83005800    4.02111800   13.96960000
 O   -4.40180800    5.65039400   15.73256500
 C   -2.02378300    4.42071500   13.37791700
 O    1.89763200    7.27218000   12.90887800
 C   -2.09025700    4.63475600   12.00196600
 C   -0.94063800    4.53301200   11.24137600
 C   -3.35213800    5.57684200   15.11006400
 N   -3.17482800    4.63071700   14.16855000
 C   -2.20809600    6.54985000   15.37912600
 C   -1.44662000    7.01130400   14.17591800
 C   -0.08869100    6.95146100   14.14452200
 C    0.67416600    7.32634500   12.98949100
 O   -0.00000300    7.77052600   11.90279700
 C   -1.35589100    7.89377600   11.91369400
 C   -1.93560400    8.38028300   10.74763000
 C   -3.31263200    8.54414600   10.68444800
 C   -4.09715700    8.23044200   11.81098200
 C   -3.52020600    7.74732000   12.95293200
 C   -2.12976300    7.55180400   13.03528900
 O   -3.98330300    8.99618100    9.61298100
 C   -3.26644000    9.33562200    8.43630600
 H    2.13197700    6.23096800   10.76942700
 H    1.27193700    3.63512900   13.60924800
 H   -0.79378200    3.81746100   15.02762500
 H   -3.02596700    4.91531900   11.54477000
 H   -0.92339600    4.72577400   10.18063700
 H   -3.99983000    4.08671100   13.94205000
 H   -1.52106400    6.07994300   16.08394100
 H   -2.65772500    7.41093400   15.88031700
 H    0.49321500    6.57397600   14.96906400
 H   -1.27850700    8.60569200    9.92515800
 H   -5.16153600    8.38142300   11.74151000
 H   -4.13873200    7.51652100   13.80435100
 H   -4.02429300    9.65213800    7.72411400
 H   -2.56812300   10.15312000    8.62637000
 H   -2.72320300    8.47314600    8.04428900
42
-80.0441597636
 C   -0.87410100    4.58136400    7.99224800
 N    0.02218400    3.39927800    5.69332900
 O    0.84817000    5.61927100    6.35171300
 S   -0.35794200    4.78463300    6.28648300
 C    0.07399900    4.60054000    8.99318300
 O   -1.49512700    5.45345000    5.61387300
 C   -0.32456400    4.47658500   10.31226600
 O   -2.55732200    5.28429700   13.92807300
 C   -1.67477200    4.33085100   10.61397500
 O   -5.65101300    7.16748500    9.69582600
 C   -2.61528200    4.23742300    9.59111200
 C   -2.20822500    4.37270200    8.27617800
 C   -2.11952000    5.37203500   12.79136700
 N   -2.09618400    4.30683900   11.96531100
 C   -1.57337200    6.67653100   12.22028100
 C   -2.29945000    7.05463400   10.96222400
 C   -3.65945100    6.99559300   10.94880600
 C   -4.43229300    7.25378500    9.77082700
 O   -3.76231600    7.59985000    8.63922100
 C   -2.40841700    7.72652100    8.62646500
 C   -1.84046600    8.12328500    7.42908500
 C   -0.46024600    8.25786300    7.31374800
 C    0.33796300    8.00850400    8.44064800
 C   -0.23404000    7.62905100    9.62830600
 C   -1.62065400    7.47009400    9.76740300
 O   -0.00467000    8.68151800    6.12476600
 C    1.39817500    8.71355200    5.89526200
 H   -0.84380100    2.92851100    5.48161300
 H    1.10434700    4.73891000    8.70983700
 H    0.40292900    4.49990200   11.10742600
 H   -3.66017300    4.10255500    9.82631500
 H   -2.91187100    4.35989100    7.45754200
 H   -2.58531100    3.48237400   12.29274500
 H   -0.50635200    6.56959300   12.04677100
 H   -1.73076900    7.44584700   12.97873000
 H   -4.22199800    6.70790600   11.82295200
 H   -2.46657400    8.29071800    6.56891100
 H    1.40877800    8.09386200    8.37214700
 H    0.40964400    7.46120800   10.47534300
 H    1.50505100    9.04060900    4.86414700
 H    1.88424700    9.42296900    6.56813800
 H    1.81569600    7.71025600    6.01112800
42
-80.04386223001
 C   -4.86408200    8.04108600   11.30937000
 N   -5.50447600   10.72074700   11.26818200
 O   -7.24093700    9.00072300   10.96299700
 S   -5.85714100    9.36340100   10.60733700
 C   -4.59968000    6.91971500   10.55219900
 O   -5.61779300    9.27611900    9.14674600
 C   -3.76894900    5.93617300   11.05822400
 O   -0.16943000    4.50837300   13.29570500
 C   -3.19772400    6.10407000   12.31716100
 O   -2.52190300   10.44416400   10.20736800
 C   -3.53392100    7.20222500   13.10315100
 C   -4.37030200    8.17796600   12.58966200
 C   -0.92106900    5.39195700   12.91028400
 N   -2.24160100    5.16999700   12.77802300
 C   -0.39958300    6.78683200   12.57484900
 C   -0.97133400    7.41758600   11.34246600
 C   -1.47768900    8.67812900   11.37160200
 C   -2.06187000    9.30713500   10.22026200
 O   -2.10065200    8.60477600    9.06392900
 C   -1.56158800    7.35484300    8.98051200
 C   -1.62222200    6.73246500    7.74552900
 C   -1.07846500    5.46108700    7.57156500
 C   -0.46027500    4.82809400    8.66009200
 C   -0.40785700    5.44954500    9.88390800
 C   -0.96214000    6.72072900   10.08621600
 O   -1.18658800    4.93437700    6.33976700
 C   -0.64597900    3.64210000    6.08860400
 H   -4.60616900   10.99231300   10.89293400
 H   -5.02764700    6.86750200    9.56314800
 H   -3.53079300    5.06572800   10.46730800
 H   -3.12069500    7.30246900   14.09373200
 H   -4.63624000    9.06794400   13.13722100
 H   -2.54108200    4.21003000   12.90428900
 H    0.68316900    6.68771600   12.46366700
 H   -0.58897300    7.43459600   13.43136300
 H   -1.50211700    9.27220300   12.27021300
 H   -2.09677100    7.23729300    6.92078000
 H   -0.02064600    3.85141100    8.55022300
 H    0.07560800    4.94740300   10.70571200
 H   -0.85923600    3.44915100    5.04023400
 H    0.43258900    3.63190900    6.25504000
 H   -1.13234700    2.88769300    6.70936000
42
-80.0436441624
 C   -1.99118100    5.11888000   10.05973400
 N   -2.48747400    4.02820100    7.59471900
 O   -0.18463300    4.14779000    8.46563900
 S   -1.44740300    4.88672800    8.36558200
 C   -2.61730500    6.28976000   10.43011500
 O   -1.27622000    6.25972100    7.82961800
 C   -2.99846600    6.47280000   11.74806300
 O   -2.64707200    6.62114600   16.05247100
 C   -2.74420000    5.47542600   12.68316400
 O    1.49875700    3.35315700   14.29028100
 C   -2.17603400    4.26783100   12.28318600
 C   -1.79336500    4.09676900   10.96553100
 C   -2.36361700    6.52773600   14.86825500
 N   -3.04108200    5.69890200   14.04891900
 C   -1.23123800    7.32608100   14.23062600
 C   -0.23330800    6.41067900   13.58290800
 C    0.21021200    5.32922800   14.28024500
 C    1.10398500    4.36053600   13.71853100
 O    1.53560700    4.56369700   12.44524700
 C    1.15428800    5.65655100   11.73188100
 C    1.68181500    5.77278300   10.45838300
 C    1.32609200    6.84297200    9.64344800
 C    0.45071500    7.81516700   10.15020500
 C   -0.05306700    7.70271000   11.42141400
 C    0.27084600    6.62286500   12.25538700
 O    1.90860800    6.88617700    8.43465500
 C    1.47518600    7.86246500    7.49667000
 H   -3.26196900    4.63718300    7.37986800
 H   -2.76650600    7.04772100    9.67798700
 H   -3.48356000    7.38534300   12.05487100
 H   -2.00067000    3.48662700   13.00704800
 H   -1.30949600    3.19699600   10.61924600
 H   -3.68978800    5.06488600   14.49996500
 H   -0.74646000    7.88464200   15.03367400
 H   -1.64782300    8.03055100   13.51664500
 H   -0.12220300    5.13006900   15.28680100
 H    2.33758200    5.00820300   10.07763800
 H    0.15333000    8.64693300    9.53484400
 H   -0.70860100    8.47758400   11.78168200
 H    2.04441800    7.65580400    6.59402000
 H    0.40736500    7.73829800    7.29746300
 H    1.69271900    8.87016000    7.85675800
