23
-65.2766977004
 C   34.46451500  -19.53912800   29.16656200
 C   33.87135000  -20.59030500   28.48902600
Cl   32.61808700  -21.49207600   29.29529200
 C   34.24270400  -20.93702100   27.20300900
 C   35.23893900  -20.19732900   26.58367100
 C   35.84614800  -19.14520600   27.23746800
 C   35.46856200  -18.80563500   28.54022300
 N   36.12902300  -17.73678100   29.13056700
 C   36.07037600  -17.19881700   30.35663100
 S   35.06141800  -17.76068300   31.68086900
 N   36.82586100  -16.17327300   30.64658600
 C   36.66487600  -15.75475900   31.92031900
 N   37.35029100  -14.71796000   32.39041200
 C   35.74221200  -16.49618400   32.69032400
 C   35.35579000  -16.20043000   34.01343600
 O   35.82468700  -15.22049500   34.63025100
 C   34.32949100  -17.06677000   34.66154300
 C   34.39155000  -18.45574900   34.60416800
 C   33.42492900  -19.22443500   35.22718800
 C   32.40355400  -18.58213700   35.89991300
 F   31.44295200  -19.33632600   36.50694100
 C   32.32373900  -17.20564900   35.99128600
 C   33.30338600  -16.45168600   35.37346900
23
-65.27669362391
 C   34.21843400  -18.69715500   26.98777900
 C   33.78222100  -20.00719700   26.89045800
Cl   32.33622400  -20.33167800   25.97509600
 C   34.45591600  -21.05188200   27.49590700
 C   35.60108500  -20.76300500   28.22285700
 C   36.05694100  -19.46583600   28.33482100
 C   35.37197800  -18.41618900   27.71494600
 N   35.89497000  -17.14012500   27.87439200
 C   35.54330200  -15.94632300   27.37713800
 S   34.20841100  -15.64273900   26.27610600
 N   36.23520200  -14.88568600   27.69811000
 C   35.76814500  -13.76451100   27.10799900
 N   36.34706600  -12.58756400   27.32131600
 C   34.65268000  -13.94468200   26.26100300
 C   33.95522200  -12.91663200   25.59518500
 O   34.28628600  -11.71747900   25.70952900
 C   32.76988700  -13.28546900   24.76848700
 C   32.80130300  -14.34265800   23.86406700
 C   31.68543000  -14.64632000   23.10520000
 C   30.54765000  -13.88021000   23.26936300
 F   29.44222100  -14.18198400   22.52977800
 C   30.48987100  -12.81317500   24.14540900
 C   31.61666900  -12.51517200   24.88805800
23
-65.27668961184
 C   34.36347400  -18.76242700   26.80231200
 C   33.97609800  -20.07958900   26.62611600
Cl   32.71793500  -20.42422800   25.47187500
 C   34.55624300  -21.11618400   27.33368100
 C   35.55704900  -20.81196300   28.24429800
 C   35.96132900  -19.50743600   28.43838100
 C   35.36797700  -18.46513800   27.71934900
 N   35.83025100  -17.18115500   27.97310800
 C   35.48760300  -15.97932500   27.48931900
 S   34.22401700  -15.66567100   26.30942800
 N   36.11298800  -14.91303300   27.91169700
 C   35.65116300  -13.78050600   27.33921000
 N   36.17206500  -12.59782900   27.64870300
 C   34.59184700  -13.95305800   26.42171900
 C   34.00289800  -12.93127400   25.64949400
 O   34.39113500  -11.74620500   25.72451400
 C   32.91822500  -13.29977900   24.69485700
 C   32.95207900  -12.75010500   23.41616400
 C   31.97309600  -13.05734400   22.49049400
 C   30.95268500  -13.90582500   22.87571400
 F   29.97985900  -14.21450400   21.97115300
 C   30.87317200  -14.44423100   24.14539200
 C   31.86680900  -14.13632000   25.05707500
23
-65.27668772407
 C   34.29402200  -17.66440800   28.70895000
 C   33.89861800  -18.63302700   29.61523800
Cl   32.97895800  -18.13607100   31.00853800
 C   34.21341400  -19.96869800   29.44565200
 C   34.95203500  -20.33422300   28.33024700
 C   35.35816900  -19.38812800   27.41208600
 C   35.03032400  -18.04041000   27.58875300
 N   35.47486900  -17.15024200   26.62063200
 C   35.28076200  -15.83684600   26.43857600
 S   34.28752300  -14.79446400   27.44580200
 N   35.84088900  -15.23699700   25.42237600
 C   35.53575300  -13.92274000   25.36438700
 N   36.01892600  -13.15112500   24.39632300
 C   34.67506900  -13.45386700   26.38099000
 C   34.28350700  -12.11233600   26.56619100
 O   34.68309100  -11.20279600   25.80830500
 C   33.40391200  -11.78147600   27.72374900
 C   33.70898600  -10.65295300   28.47989600
 C   32.92915700  -10.29867000   29.56426500
 C   31.83037200  -11.08178400   29.86257200
 F   31.05255400  -10.74064000   30.92957300
 C   31.48244700  -12.19000000   29.11488000
 C   32.27937000  -12.53817300   28.03918700
23
-65.27644038242
 C   35.12663100  -19.63324900   28.91459300
 C   34.63218900  -20.67740100   28.15510500
Cl   34.45265400  -22.24015200   28.90022400
 C   34.27848400  -20.51401200   26.82687600
 C   34.42847700  -19.26188100   26.25163600
 C   34.92009700  -18.20116300   26.98675200
 C   35.27322000  -18.38111900   28.32468700
 N   35.76200900  -17.28002200   29.02218700
 C   36.17435000  -17.20138600   30.29267400
 S   36.72676200  -15.62906600   30.88476700
 N   36.21356200  -18.15793800   31.17014700
 C   36.68160600  -17.73735200   32.36804100
 N   36.79087600  -18.58196700   33.38761000
 C   37.01948800  -16.36852100   32.44834700
 C   37.59174000  -15.73847600   33.57345000
 O   37.85002200  -16.37436700   34.61739300
 C   37.92563000  -14.28838700   33.48784300
 C   37.04140700  -13.35479000   32.95587200
 C   37.38257600  -12.01500100   32.91351400
 C   38.61465900  -11.63153000   33.40676500
 F   38.95785400  -10.31281200   33.35901600
 C   39.50782800  -12.53099400   33.95711400
 C   39.14762700  -13.86425300   34.00313400
23
-65.27639713985
 C   34.10293500  -18.94263300   28.55471800
 C   33.02443700  -19.23843900   27.74178900
Cl   31.43957700  -18.71220500   28.23265000
 C   33.17068900  -19.93758800   26.55612800
 C   34.44089400  -20.34750700   26.18236500
 C   35.53598800  -20.06570700   26.97523300
 C   35.37306100  -19.36095500   28.16835800
 N   36.50795300  -19.10460900   28.93306400
 C   36.61138900  -18.45343800   30.09745700
 S   38.22143700  -18.28224800   30.80879300
 N   35.65172300  -17.91356600   30.78623600
 C   36.09962600  -17.32944300   31.92154000
 N   35.25565900  -16.72835800   32.75279300
 C   37.49318100  -17.39914300   32.13833300
 C   38.16120800  -16.92755700   33.28807500
 O   37.54173200  -16.38642600   34.22819500
 C   39.63555700  -17.12390300   33.38603500
 C   40.16061300  -17.56879000   34.59629600
 C   41.52037900  -17.76547000   34.74477300
 C   42.34212400  -17.48811100   33.66899000
 F   43.68581500  -17.67534100   33.80523100
 C   41.85636600  -17.01771300   32.46431000
 C   40.49184600  -16.83743200   32.32714300
23
-65.27639264826
 C   33.95817700  -18.82004100   28.58648500
 C   32.87385600  -19.04529700   27.75879800
Cl   31.29365400  -18.55671000   28.30091800
 C   33.01072700  -19.64451700   26.51857800
 C   34.27727400  -20.02626600   26.10448600
 C   35.37800700  -19.81328000   26.91079900
 C   35.22455300  -19.20810800   28.15880500
 N   36.36528900  -19.01551700   28.93256700
 C   36.47770200  -18.47642600   30.15195800
 S   38.08900800  -18.40877800   30.87775500
 N   35.52702000  -17.98878600   30.89021700
 C   35.98486500  -17.52289300   32.07536100
 N   35.15135600  -16.98923800   32.96161200
 C   37.37322500  -17.65941500   32.29297400
 C   38.07091700  -17.17811200   33.42084300
 O   37.48461200  -16.57161900   34.34220900
 C   39.54766600  -17.37134900   33.48155300
 C   40.14804600  -18.58801800   33.17168600
 C   41.52090400  -18.73174700   33.25948100
 C   42.27436400  -17.64423200   33.65699100
 F   43.62870200  -17.77976700   33.73717400
 C   41.70763100  -16.42795300   33.98727900
 C   40.33375700  -16.30353600   33.90616300
23
-65.2763872359
 C   33.79751300  -18.74230100   28.23060800
 C   33.00240500  -18.95017300   27.11874200
Cl   31.46012100  -18.14783400   27.03301200
 C   33.39756000  -19.77397300   26.07897600
 C   34.62885900  -20.40461200   26.16594200
 C   35.44334300  -20.21502000   27.26490700
 C   35.03191200  -19.38100300   28.30521900
 N   35.88957400  -19.22325200   29.39024100
 C   35.72946100  -18.48188700   30.49258100
 S   37.01912300  -18.51302900   31.70213600
 N   34.71733500  -17.72630000   30.79490300
 C   34.87460700  -17.11108100   31.98985800
 N   33.94129300  -16.28982000   32.45699700
 C   36.07123000  -17.40677800   32.67914900
 C   36.46560000  -16.83146100   33.90523600
 O   35.75707000  -15.98227400   34.48662400
 C   37.77780500  -17.22758500   34.49096000
 C   38.59089700  -16.22717700   35.01686100
 C   39.81552400  -16.53605200   35.57767700
 C   40.19855500  -17.86307500   35.62048600
 F   41.40310600  -18.18019100   36.17518100
 C   39.40327600  -18.88232400   35.13353400
 C   38.18563200  -18.55604800   34.56434400
23
-65.27635918254
 C   33.87344800  -19.92190500   27.84157200
 C   33.88963800  -20.28133100   26.50792300
Cl   32.52537700  -21.14465000   25.85199500
 C   34.96074700  -19.97211900   25.68683800
 C   36.03454200  -19.28552100   26.23040600
 C   36.04543300  -18.91344500   27.56167800
 C   34.96178300  -19.23092000   28.37606300
 N   34.89911500  -18.88929500   29.72402500
 C   35.80402000  -18.24837300   30.47327500
 S   35.41271700  -17.96348700   32.17460200
 N   36.95921700  -17.79193000   30.09554300
 C   37.62816900  -17.18851800   31.10554800
 N   38.83036000  -16.66275200   30.90177000
 C   36.96019800  -17.15437300   32.34960300
 C   37.50442100  -16.64815000   33.54846300
 O   38.65737700  -16.16876900   33.59135500
 C   36.69058400  -16.73057700   34.79448000
 C   35.34502500  -16.37728300   34.82648500
 C   34.63185500  -16.44993700   36.00943600
 C   35.28415900  -16.88152100   37.14812700
 F   34.58205800  -16.96274100   38.31438100
 C   36.62313100  -17.22308600   37.15349600
 C   37.32495900  -17.13381800   35.96649100
23
-65.27635499627
 C   33.99251900  -19.34357900   28.77019800
 C   34.35408400  -20.66912400   28.62790200
Cl   33.58635100  -21.86425400   29.63738800
 C   35.30793900  -21.06540300   27.70581200
 C   35.90519300  -20.09753400   26.91438000
 C   35.56279900  -18.76375300   27.03527100
 C   34.60181600  -18.37909500   27.96636700
 N   34.20556300  -17.05667600   28.14594000
 C   34.62842000  -15.95756800   27.51004200
 S   33.93083400  -14.40548000   27.99379300
 N   35.51300700  -15.88639500   26.56257200
 C   35.71031600  -14.61633100   26.13830000
 N   36.57772600  -14.35366200   25.16786900
 C   34.94968600  -13.62519900   26.79660300
 C   34.94666600  -12.25280500   26.47079100
 O   35.64421100  -11.80018200   25.53862500
 C   34.05562100  -11.33965000   27.24195600
 C   33.31378700  -10.39488500   26.53820600
 C   32.47562100   -9.51961200   27.20236400
 C   32.41175400   -9.59487900   28.58065100
 F   31.59051100   -8.73383000   29.24691400
 C   33.15588200  -10.50120400   29.31087700
 C   33.98094500  -11.37881700   28.63097300
23
-65.27634553708
 C   33.84731300  -19.72640100   28.24316000
 C   34.32035200  -20.79597300   28.97824700
Cl   33.18550600  -21.97955600   29.56809500
 C   35.66876000  -20.94554600   29.25483500
 C   36.55218300  -19.99153100   28.77605500
 C   36.10679300  -18.91080600   28.03808000
 C   34.74822000  -18.77274500   27.76716700
 N   34.22412100  -17.71232100   27.03293500
 C   34.86375500  -16.67545400   26.47902000
 S   33.89597000  -15.48062300   25.60430800
 N   36.13919600  -16.43424400   26.49997900
 C   36.45784700  -15.29701200   25.83919300
 N   37.72010700  -14.89296900   25.75638000
 C   35.37567500  -14.60556100   25.25105400
 C   35.46937700  -13.36163700   24.59247800
 O   36.56087200  -12.76605700   24.47106300
 C   34.22281000  -12.73462600   24.06778500
 C   34.03645900  -11.37016700   24.27083100
 C   32.90254200  -10.73566200   23.80011400
 C   31.97342800  -11.48731500   23.10660400
 F   30.85190300  -10.87121200   22.63494100
 C   32.14178000  -12.83663500   22.86230900
 C   33.27613900  -13.45976500   23.35001200
23
-65.2763146026
 C   34.07351600  -19.26248700   28.91305200
 C   34.42386300  -20.58733600   28.73974500
Cl   33.80265600  -21.77512400   29.85329400
 C   35.25340200  -20.98841300   27.70622900
 C   35.73538700  -20.02624300   26.83341800
 C   35.40123100  -18.69325800   26.98290100
 C   34.56622700  -18.30370100   28.02661300
 N   34.18648600  -16.98197500   28.24247900
 C   34.52623400  -15.88564400   27.55436700
 S   33.88948100  -14.33198200   28.11231900
 N   35.29010300  -15.81768700   26.50695700
 C   35.43583200  -14.54885700   26.05891200
 N   36.18504700  -14.28924900   24.99379500
 C   34.75904400  -13.55574900   26.79998300
 C   34.71625400  -12.18421500   26.47401500
 O   35.29430200  -11.73301000   25.46284700
 C   33.92816800  -11.27044200   27.34963400
 C   34.03644900  -11.30456400   28.73659000
 C   33.30475500  -10.42679500   29.51586800
 C   32.46805600   -9.52566600   28.88630000
 F   31.73853500   -8.66423600   29.65152000
 C   32.34981500   -9.45611600   27.51132700
 C   33.09702800  -10.33114000   26.74582700
23
-65.27617211701
 C   34.55720900  -19.43500700   28.90340500
 C   34.69181600  -20.71754900   28.41193900
Cl   34.81231600  -22.04261500   29.53510100
 C   34.73225000  -20.97073400   27.05060900
 C   34.63630700  -19.89926000   26.17962300
 C   34.50142800  -18.60382000   26.64608200
 C   34.45915500  -18.35847000   28.01638200
 N   34.32299800  -17.09969600   28.58596900
 C   34.18829800  -15.87512000   28.05731900
 S   34.13316200  -15.49371600   26.34493900
 N   34.07310500  -14.84167000   28.84808900
 C   33.93681900  -13.68261100   28.16822100
 N   33.80923500  -12.52608400   28.81069900
 C   33.93074000  -13.80116500   26.76142200
 C   33.87875600  -12.72479000   25.85162900
 O   33.82444900  -11.53959600   26.24348700
 C   33.93242300  -13.02151000   24.39165800
 C   34.74482400  -12.22363700   23.59031900
 C   34.83447200  -12.44992800   22.23006700
 C   34.08157100  -13.47345600   21.68693700
 F   34.15985000  -13.70418600   20.34529200
 C   33.24359800  -14.26453700   22.44883500
 C   33.17321200  -14.03282700   23.81071100
23
-65.27616946079
 C   34.28414500  -19.38901300   28.56747400
 C   35.08372100  -20.47787200   28.28530800
Cl   34.68581700  -22.02070100   28.98756900
 C   36.19052500  -20.36889600   27.45939100
 C   36.48310200  -19.13147900   26.91254500
 C   35.69782600  -18.02414400   27.17914000
 C   34.58876300  -18.14182300   28.01331600
 N   33.73881500  -17.09493900   28.34350400
 C   33.74977600  -15.78896200   28.04132800
 S   34.96715700  -14.96553700   27.08147600
 N   32.79930000  -15.01511100   28.49309700
 C   32.95737100  -13.72763800   28.11647900
 N   32.08067900  -12.79771000   28.48110600
 C   34.10276000  -13.45973100   27.33558400
 C   34.43436400  -12.20868500   26.77550300
 O   33.70508100  -11.20684800   26.93742000
 C   35.66486200  -12.10127000   25.94102600
 C   35.59313400  -11.36524900   24.76111000
 C   36.70165600  -11.22541400   23.94817300
 C   37.88444600  -11.81714100   24.34881500
 F   38.98583400  -11.68313800   23.55613200
 C   37.99715900  -12.52933500   25.52709400
 C   36.87571900  -12.66994100   26.32465500
23
-65.27615175052
 C   34.53956600  -19.45333300   28.88024600
 C   34.74424200  -20.73727800   28.41759200
Cl   34.78727200  -22.04899000   29.56188100
 C   34.91503200  -21.00224700   27.06863900
 C   34.87489600  -19.94147400   26.18037900
 C   34.67095600  -18.64497000   26.61792700
 C   34.50236500  -18.38716900   27.97613400
 N   34.29316500  -17.12585300   28.51702600
 C   34.22688100  -15.90422900   27.96906100
 S   34.43242000  -15.52752000   26.26701200
 N   34.00672200  -14.86719800   28.73227800
 C   33.97959900  -13.70954100   28.03703500
 N   33.76246300  -12.55073700   28.65062600
 C   34.20478600  -13.82962700   26.64841100
 C   34.15345900  -12.77029000   25.71881900
 O   33.89436400  -11.60089500   26.07518000
 C   34.37585100  -13.07287100   24.27626400
 C   35.40961700  -13.89695600   23.84151300
 C   35.59053300  -14.13736800   22.49138900
 C   34.72447000  -13.54433600   21.59327900
 F   34.89483600  -13.78510900   20.26196400
 C   33.69967500  -12.70705700   21.99111500
 C   33.53868200  -12.46781800   23.34253800
23
-65.27614575192
 C   33.87217000  -19.15455200   28.15769800
 C   33.68699700  -20.07311200   27.14454500
Cl   32.06421300  -20.50868200   26.68771900
 C   34.76004700  -20.65268700   26.48754200
 C   36.03941300  -20.28925000   26.87095300
 C   36.25265300  -19.37118800   27.88366400
 C   35.16814200  -18.79296300   28.53876400
 N   35.27346600  -17.86295400   29.56407200
 C   36.32662700  -17.29927200   30.17244900
 S   38.01471900  -17.59249800   29.79074600
 N   36.12906200  -16.43934400   31.13578500
 C   37.28373900  -15.95543500   31.64250300
 N   37.27535400  -15.07028400   32.63386200
 C   38.46328100  -16.44601200   31.04136500
 C   39.77726500  -16.13686500   31.44932000
 O   40.00009800  -15.37525400   32.41465500
 C   40.91714500  -16.77155200   30.72809500
 C   40.97001100  -16.84049900   29.33916300
 C   42.05596200  -17.42163100   28.70957900
 C   43.07718900  -17.92926900   29.48914200
 F   44.14610600  -18.50913100   28.87230500
 C   43.06299900  -17.86149000   30.86928700
 C   41.97657900  -17.26783300   31.48307000
