11
-38.68187781867
 N    6.88806100   11.52382000  -30.60186400
 C    7.62987200   10.84087600  -29.53126100
 C    6.78021500   10.97336500  -28.21665200
 O    5.81377300   11.76968500  -28.32035100
 O    7.11994500   10.31501300  -27.23303800
 C    7.69877800   12.46414900  -31.40085100
 C    8.25509800   13.61920800  -30.56936700
 O    9.44505200   13.20404700  -29.92313000
 C    6.12289600   10.59317000  -31.45924500
 C    5.02683300    9.85615800  -30.67646800
 O    4.02603800   10.73557500  -30.21576900
11
-38.68113248053
 N    6.90664300   11.62515200  -30.61694400
 C    8.22257200   10.97982600  -30.72047700
 C    9.10791200   11.52542300  -29.53329000
 O   10.19938700   10.99200800  -29.33769900
 O    8.57953600   12.47552600  -28.90907100
 C    6.41742000   12.23318400  -31.87103900
 C    5.38378400   13.33268200  -31.62815500
 O    4.12823900   12.75560800  -31.33172600
 C    5.89001500   10.75532500  -29.98418900
 C    6.20376800   10.48329900  -28.50807900
 O    6.16302000   11.65961500  -27.73057500
11
-38.68097770699
 N    6.92819100   11.52621600  -30.52363500
 C    6.71239200   10.07486600  -30.60101600
 C    6.10465100    9.76976400  -32.02488000
 O    5.76208900   10.80038600  -32.65200300
 O    6.01612600    8.59364400  -32.37453500
 C    6.40573200   12.15527700  -29.29128500
 C    7.14002100   11.69862100  -28.02126800
 O    8.42790200   12.24830500  -27.88202900
 C    8.32359400   11.92749100  -30.81348000
 C    8.74987900   11.57091900  -32.24242200
 O    8.04236400   12.31724000  -33.20779600
11
-38.68096375209
 N    6.91012500   11.34104000  -30.60266700
 C    6.90744200   10.05401100  -29.89410600
 C    6.33622600   10.28148300  -28.44185300
 O    5.84839900   11.41808100  -28.25703200
 O    6.41219000    9.33907300  -27.65056300
 C    8.22806900   12.01053000  -30.56719400
 C    8.67479900   12.35549500  -29.13946800
 O    7.84632800   13.32721900  -28.54554600
 C    6.35488400   11.26919800  -31.97074400
 C    4.83049500   11.21701300  -31.91635400
 O    4.41045000   12.41101000  -31.28502800
11
-38.68095944248
 N    6.68731800   11.75789500  -30.62982200
 C    7.93275900   10.99259600  -30.77701000
 C    8.41135900   10.53590200  -29.34534500
 O    7.76601100   11.04776500  -28.40429100
 O    9.35756300    9.74753100  -29.28990900
 C    6.67244900   13.02542800  -31.38993900
 C    7.50226000   14.08104000  -30.66448100
 O    6.89925400   14.26485700  -29.39823900
 C    5.48038400   10.94089100  -30.87742500
 C    5.34045500    9.78126200  -29.88103600
 O    5.11004700   10.23646400  -28.56830700
11
-38.68070252912
 N    6.94249800   11.74957900  -30.76354000
 C    7.66371600   10.62084400  -31.36437200
 C    8.31455200    9.78193200  -30.19643500
 O    8.27612900   10.35095600  -29.08287100
 O    8.79478200    8.68445100  -30.48472100
 C    7.17867100   13.06036000  -31.40171300
 C    7.04669300   14.17741100  -30.35501900
 O    7.82254900   13.89163800  -29.21331700
 C    5.50031200   11.46966800  -30.59339500
 C    5.23200200   10.31503700  -29.61839500
 O    5.61363200   10.63312900  -28.30070300
11
-38.68065691054
 N    6.86279600   11.61417400  -30.75000400
 C    7.45078600   10.35966600  -30.26214500
 C    7.32351200   10.36127500  -28.69063500
 O    6.78017200   11.39982100  -28.23671600
 O    7.74883400    9.38885400  -28.07181000
 C    7.83677300   12.52672100  -31.37897900
 C    8.83620500   13.05824400  -30.33967100
 O    8.19379800   13.80006400  -29.32546400
 C    5.62369800   11.42863700  -31.52921500
 C    4.49206200   10.89271100  -30.63818800
 O    4.17399000   11.78993500  -29.59651700
11
-38.67967815803
 N    6.84299500   11.61120100  -30.59545300
 C    7.70878000   10.52359700  -31.07210500
 C    9.06585100   10.66571800  -30.28368800
 O    8.99604300   11.46189100  -29.31861400
 O   10.03271900   10.00268000  -30.66404100
 C    6.86103100   12.78931300  -31.48914200
 C    6.59512000   14.09465400  -30.74204900
 O    5.23549400   14.17043700  -30.36425400
 C    5.46923600   11.20277800  -30.24170400
 C    5.43375800   10.16034100  -29.11816900
 O    5.63111100    8.83671900  -29.57134600
11
-38.67966213036
 N    6.64197500   11.91682300  -31.39929800
 C    7.97240800   12.13201400  -31.98503300
 C    8.92497800   12.49973200  -30.78468200
 O   10.04510800   12.94335300  -31.04504400
 O    8.41309900   12.28101300  -29.66220800
 C    5.77030600   13.10711800  -31.49947600
 C    4.76838300   13.19172600  -30.34983100
 O    3.77062300   12.20233100  -30.50028400
 C    5.95773100   10.68760200  -31.84667600
 C    6.73821300    9.41729400  -31.48991800
 O    7.75039800    9.09942700  -32.42293900
11
-38.67939077474
 N    6.94883200   11.78156900  -30.33599900
 C    6.61667100   12.85573500  -29.39181200
 C    7.77646600   13.92376600  -29.51598800
 O    8.54023800   13.71103800  -30.48383300
 O    7.81074800   14.83662200  -28.69010200
 C    7.61745100   10.63367900  -29.68158600
 C    8.51128800    9.85735300  -30.64558600
 O    7.72765200    9.12716400  -31.56856800
 C    5.84378500   11.38253400  -31.23399000
 C    4.64420100   10.76777800  -30.50322300
 O    4.87720900    9.47139500  -30.00561000
11
-38.67938665469
 N    6.99197900   11.45028100  -30.22661200
 C    6.79332600   11.25273700  -28.78550100
 C    8.07812200   11.84708700  -28.08010600
 O    8.22758000   11.63005600  -26.87705200
 O    8.80813500   12.50208300  -28.85677600
 C    7.52005200   10.24089700  -30.89872700
 C    8.31056200   10.57889300  -32.16049200
 O    7.43930200   11.00993500  -33.18704700
 C    5.84566400   12.06203600  -30.93250800
 C    4.58122900   11.19504300  -30.92561500
 O    4.65571700   10.06249100  -31.75904800
11
-38.67938546209
 N    6.78197000   11.83691200  -30.33977000
 C    6.68695900   11.06771100  -29.09292200
 C    5.93489900    9.72569700  -29.46123500
 O    5.89269400    8.83664300  -28.61020100
 O    5.44350700    9.73633300  -30.61176100
 C    6.33895300   13.24383400  -30.23508200
 C    7.20436600   14.09606100  -29.29931400
 O    8.47521700   14.40988400  -29.81804600
 C    8.09481700   11.68274300  -31.00694600
 C    8.00549000   11.89567600  -32.51628400
 O    7.79529100   13.26232900  -32.81059300
11
-38.67938099518
 N    6.74069400   11.71735300  -30.24907500
 C    7.02496400   11.32977800  -31.63687200
 C    8.29033000   10.39226500  -31.64073900
 O    8.52662000    9.77121800  -32.68282000
 O    8.92869400   10.38022000  -30.56839400
 C    6.04858300   13.01223500  -30.10120500
 C    6.91916500   14.20041800  -30.53059200
 O    7.01601500   14.36136200  -31.92869400
 C    6.07780800   10.62799700  -29.49839300
 C    6.49606300   10.69991200  -28.01995000
 O    7.86208100   11.02248700  -27.88940600
11
-38.67935567385
 N    6.76964600   11.61843000  -30.50430600
 C    7.72823500   10.90863800  -31.36063300
 C    8.90563400   11.90681900  -31.67497100
 O    8.91702300   12.92242600  -30.94783200
 O    9.68468700   11.60161200  -32.58332100
 C    5.84701300   12.46112500  -31.29523100
 C    5.37901400   13.65935600  -30.45237400
 O    6.43119100   14.19258600  -29.68141000
 C    6.07027100   10.77459000  -29.51798200
 C    7.02549500   10.15167800  -28.49144200
 O    7.71499800    9.01740800  -28.96957400
11
-38.67909014878
 N    6.80162800   11.64658600  -30.23559300
 C    7.00364700   13.07973800  -29.99711400
 C    6.13114300   13.85552200  -31.06470700
 O    5.33254900   13.12606500  -31.68619800
 O    6.31598000   15.07044900  -31.17133400
 C    7.74346600   11.11456400  -31.24540800
 C    7.12213400    9.89470600  -31.94213800
 O    5.75371700   10.09213900  -32.22075200
 C    6.70365600   10.82165000  -29.01458000
 C    8.00432600   10.79105600  -28.19829100
 O    9.00003200    9.95785900  -28.74712000
11
-38.67907449048
 N    7.05069500   11.74870400  -30.20293900
 C    8.41879300   11.82305700  -30.72983800
 C    8.53340700   10.74922600  -31.88452500
 O    7.53853600   10.00208100  -31.97486800
 O    9.57005000   10.74611300  -32.55419600
 C    6.96536700   11.63743100  -28.73223600
 C    7.18726400   10.18928600  -28.31048600
 O    6.14414800    9.43081900  -28.89266800
 C    6.17703200   12.80171500  -30.75899300
 C    4.69339600   12.46144500  -30.62616500
 O    4.24794900   12.77395300  -29.32109000
11
-38.67868813338
 N    6.94789600   11.71860700  -30.51706200
 C    6.88457200   10.35909500  -31.07287000
 C    6.58553900   10.52964200  -32.61074500
 O    6.39664200    9.51636200  -33.28420900
 O    6.57121800   11.72830000  -32.98125700
 C    5.80258100   12.06096100  -29.64560000
 C    5.80844300   11.31966200  -28.29971500
 O    6.72935600   11.84169900  -27.37101800
 C    8.24357100   12.09512700  -29.91333600
 C    9.42789200   11.85192400  -30.85629100
 O    9.92178700   10.53072300  -30.80341400
