32
-32.65151571025
 C    3.90647700   23.16073400   -4.39808100
 C    4.71956200   23.10814500   -5.68624300
 C    3.93249700   23.64809300   -6.87857000
 C    4.75288400   23.60870900   -8.16625400
 C    3.96608400   24.04097700   -9.40412000
 C    3.58104600   25.51925400   -9.39554000
 C    2.90804800   25.93694900  -10.70125600
 C    2.50011600   27.40831900  -10.69282900
 C    1.83488300   27.82954300  -12.00126100
 C    1.44794600   29.30374200  -11.99300200
 H    4.48524000   22.77197200   -3.56382700
 H    3.62015500   24.18515500   -4.17057100
 H    3.00078900   22.56621200   -4.49522100
 H    5.01513900   22.07570800   -5.88693200
 H    5.63282700   23.69480700   -5.56311400
 H    3.62843600   24.67420400   -6.66539400
 H    3.02640300   23.05191200   -7.01085000
 H    5.11011700   22.58731300   -8.32063200
 H    5.63047700   24.24995800   -8.05453700
 H    3.06191600   23.43340800   -9.48725100
 H    4.57613100   23.84587500  -10.28969200
 H    4.47815500   26.12382700   -9.24252900
 H    2.89929000   25.71881100   -8.56719300
 H    2.02265800   25.31758500  -10.86395500
 H    3.59202400   25.75788400  -11.53448600
 H    3.38498400   28.02661300  -10.52356600
 H    1.80989500   27.58696000   -9.86487200
 H    0.94241800   27.22073900  -12.16300000
 H    2.51961400   27.63836500  -12.83066000
 H    0.97803400   29.58150600  -12.93324100
 H    0.74924100   29.50917400  -11.18508500
 H    2.32795000   29.92697300  -11.85054500
32
-32.65063137211
 C    3.55118200   24.99548700   -5.38590500
 C    4.63815400   24.46913100   -6.31605500
 C    4.19848700   23.19077800   -7.02735200
 C    5.29379700   22.56518900   -7.89197300
 C    5.66558600   23.40918900   -9.10973500
 C    6.67267500   22.68758200  -10.00369700
 C    7.16848500   23.53895200  -11.17330000
 C    6.08732000   23.83549500  -12.21063000
 C    6.64695600   24.58641500  -13.41711800
 C    5.56675000   24.88867500  -14.44912800
 H    3.87960700   25.90534100   -4.88939700
 H    2.64578100   25.21719100   -5.94655700
 H    3.30931600   24.25656000   -4.62504800
 H    5.54252100   24.26515100   -5.73814900
 H    4.87897900   25.23693500   -7.05279200
 H    3.32652300   23.40620500   -7.64951100
 H    3.89222500   22.46152800   -6.27304500
 H    4.94725700   21.58843500   -8.23904400
 H    6.18429400   22.39963200   -7.28070800
 H    6.09810200   24.35699100   -8.78476300
 H    4.75959700   23.62932600   -9.67689000
 H    6.22084600   21.77140100  -10.39137200
 H    7.53276900   22.39786400   -9.39476700
 H    7.98822400   23.01005200  -11.66614200
 H    7.56874100   24.48050300  -10.78977400
 H    5.29538600   24.43482400  -11.75837800
 H    5.64350800   22.89521800  -12.54660200
 H    7.43445900   23.98790300  -13.88099700
 H    7.09900600   25.52202100  -13.07990200
 H    5.98708300   25.42121900  -15.29872300
 H    5.11658900   23.96639900  -14.80960600
 H    4.78324600   25.50318000  -14.01132100
32
-32.65060837363
 C    4.62381100   24.84270700   -4.63754500
 C    4.39796500   23.64627000   -5.55436200
 C    3.89733000   24.07197100   -6.93285100
 C    3.66483100   22.87763800   -7.85569000
 C    3.17270200   23.31294900   -9.23450200
 C    2.81873700   22.14195700  -10.15231700
 C    4.03053100   21.31405700  -10.57625000
 C    3.64621700   20.23665500  -11.58881600
 C    4.80676300   19.31378700  -11.96376400
 C    5.90439100   20.01891000  -12.75296900
 H    4.98026300   24.51684100   -3.66346600
 H    5.36205100   25.51656300   -5.06657000
 H    3.69728800   25.39514900   -4.49792800
 H    3.66835800   22.97266200   -5.09907000
 H    5.33332400   23.09313700   -5.66613800
 H    4.62845000   24.74332800   -7.38969900
 H    2.96401100   24.62901700   -6.82017600
 H    2.92584300   22.21165800   -7.40352200
 H    4.59788200   22.32033700   -7.95469000
 H    3.93821900   23.92777400   -9.71371200
 H    2.28376800   23.93575600   -9.10637800
 H    2.33611200   22.53715700  -11.04978100
 H    2.09645600   21.49511700   -9.64856700
 H    4.47448400   20.83473200   -9.70199300
 H    4.77770400   21.97986500  -11.01123100
 H    3.25843100   20.71193700  -12.49305200
 H    2.84140400   19.63090000  -11.16459700
 H    4.41486200   18.49017100  -12.56523500
 H    5.23282800   18.88437600  -11.05416600
 H    6.66313300   19.30452300  -13.06365100
 H    5.49005300   20.48836900  -13.64244400
 H    6.38661800   20.78463100  -12.15142900
32
-32.65057248176
 C    4.28685700   24.45174300   -4.65673800
 C    5.01205100   23.81017800   -5.83452400
 C    4.15570200   23.73047500   -7.09919900
 C    2.98182900   22.76082900   -6.97716700
 C    2.21318500   22.63175200   -8.29028000
 C    1.03411400   21.66798400   -8.17379600
 C    0.26226300   21.54353100   -9.48550600
 C   -0.91899200   20.58309000   -9.36117900
 C   -1.78301100   20.51863800  -10.62139600
 C   -1.07108300   19.87211200  -11.80466900
 H    4.96051300   24.55152300   -3.80894700
 H    3.92623600   25.44171200   -4.92720700
 H    3.43834700   23.84844700   -4.34561500
 H    5.33689300   22.80497100   -5.55661400
 H    5.90668800   24.39625700   -6.05773200
 H    4.78876800   23.40858200   -7.92995300
 H    3.77736500   24.72656300   -7.34069200
 H    2.29754000   23.10460600   -6.19981800
 H    3.35618000   21.77798300   -6.68055400
 H    2.89016400   22.28008600   -9.07264400
 H    1.84568600   23.61584900   -8.59097000
 H    0.35906700   22.01722800   -7.38865300
 H    1.40200100   20.68281700   -7.87718200
 H    0.94231500   21.19326400  -10.26372500
 H   -0.10437400   22.52918900   -9.78241900
 H   -1.54384200   20.90423700   -8.52399600
 H   -0.54678200   19.58252600   -9.12876100
 H   -2.09520200   21.52911300  -10.89472800
 H   -2.68466800   19.94425700  -10.39630900
 H   -1.75325700   19.77108700  -12.64545900
 H   -0.22450000   20.47294700  -12.12576700
 H   -0.70959800   18.88222100  -11.53502900
32
-32.65047923105
 C    3.46735300   22.95028100   -4.35401700
 C    4.13254100   22.69135600   -5.70070000
 C    3.98594000   23.88159400   -6.64614800
 C    4.65191500   23.63015100   -7.99684200
 C    4.49953100   24.81904100   -8.94330200
 C    5.17532700   24.56263500  -10.28883100
 C    4.96806900   25.68893800  -11.30310700
 C    5.71522300   26.97108500  -10.94005100
 C    5.51207800   28.09428300  -11.95881200
 C    6.18881700   27.82494200  -13.29839200
 H    3.58439000   22.09137800   -3.69779700
 H    3.91286900   23.81653500   -3.87002800
 H    2.40455600   23.14102900   -4.48517000
 H    3.68563300   21.80802800   -6.16254800
 H    5.19377700   22.48257500   -5.54743200
 H    4.43124200   24.76548500   -6.18313400
 H    2.92446700   24.08988700   -6.80043300
 H    4.21040300   22.74272500   -8.45695700
 H    5.71438700   23.42653500   -7.84285800
 H    4.93288500   25.70297100   -8.47234000
 H    3.43712700   25.01613500   -9.10576500
 H    4.77148300   23.63770900  -10.70834700
 H    6.24610900   24.41210000  -10.13242300
 H    3.90046100   25.90579300  -11.38745600
 H    5.31354000   25.33842000  -12.27716500
 H    6.78242900   26.75338500  -10.85365300
 H    5.36833400   27.32378000   -9.96719300
 H    5.91844600   29.01875200  -11.54167300
 H    4.44192300   28.24632700  -12.11656000
 H    6.07341800   28.68237200  -13.95721900
 H    7.25160500   27.64178700  -13.15620800
 H    5.75289500   26.95974700  -13.79056900
32
-32.64993567618
 C    5.40457200   24.13003000   -4.72098400
 C    5.18481500   24.37764700   -6.20899700
 C    3.89607500   23.72340300   -6.70276600
 C    3.70541700   23.81534200   -8.21781900
 C    3.59189800   25.23850100   -8.76784500
 C    2.39254700   26.00441600   -8.21155800
 C    2.12115500   27.31446100   -8.95243700
 C    3.22170500   28.35637200   -8.76240300
 C    2.86493800   29.68808500   -9.41950600
 C    3.96689900   30.72509100   -9.23633700
 H    6.32080800   24.60898100   -4.38413300
 H    4.57462300   24.53001600   -4.14249000
 H    5.47928400   23.06388000   -4.51804600
 H    6.03061700   23.97691700   -6.77260700
 H    5.14433600   25.45333100   -6.38739700
 H    3.04271800   24.17635700   -6.19532200
 H    3.91383600   22.66587800   -6.42630400
 H    2.80139600   23.26275400   -8.48640800
 H    4.54956100   23.32208700   -8.70657600
 H    3.49221500   25.17469100   -9.85456000
 H    4.51169600   25.78335900   -8.55506900
 H    2.55200300   26.22467400   -7.15466000
 H    1.50593500   25.37006600   -8.28996400
 H    1.17862700   27.73204400   -8.58889800
 H    1.99944400   27.10864400  -10.01870000
 H    4.15519800   27.98925000   -9.19228800
 H    3.38606500   28.51578100   -7.69384400
 H    1.93543800   30.06624500   -8.98746600
 H    2.69145100   29.52713800  -10.48601700
 H    3.69188100   31.66404600   -9.71049000
 H    4.14152400   30.91176000   -8.17904400
 H    4.89640300   30.37503000   -9.67978600
32
-32.64983070154
 C    5.95396400   24.18596000   -6.01721400
 C    5.10181400   22.92163000   -6.02543800
 C    3.92033000   22.99712000   -6.99354700
 C    2.85820300   24.01302600   -6.57698400
 C    1.64872300   23.97329100   -7.50926900
 C    0.60679100   25.04858900   -7.19744800
 C   -0.09292300   24.83596100   -5.85567300
 C   -1.28773800   25.76756300   -5.64749400
 C   -0.89387800   27.23571900   -5.49951400
 C   -2.09891800   28.11007700   -5.17241500
 H    6.82079100   24.05162400   -5.37444300
 H    6.30341100   24.41413200   -7.02174800
 H    5.38703200   25.03607200   -5.64762800
 H    4.72846800   22.72916200   -5.01704100
 H    5.73108300   22.07541200   -6.31131900
 H    3.45418300   22.01024000   -7.05271700
 H    4.28874000   23.24703900   -7.99143600
 H    3.28224500   25.01838800   -6.59259800
 H    2.54314600   23.79596400   -5.55488400
 H    1.17953900   22.98800500   -7.45160100
 H    1.99594600   24.11206900   -8.53634600
 H   -0.14724200   25.04152500   -7.98861500
 H    1.09253900   26.02581400   -7.20998300
 H    0.61741200   24.98521400   -5.04071200
 H   -0.44447400   23.80234700   -5.80581500
 H   -1.81937600   25.45712900   -4.74433300
 H   -1.97836600   25.66308100   -6.48785100
 H   -0.43808800   27.58923000   -6.42568100
 H   -0.15070400   27.32967400   -4.70425000
 H   -1.80103800   29.15111300   -5.07385800
 H   -2.84497200   28.03891200   -5.96082500
 H   -2.55799900   27.79376100   -4.23826800
32
-32.64981717794
 C    4.59643000   24.06964200   -4.54921800
 C    4.86517300   23.67485000   -5.99685900
 C    3.56656800   23.43023700   -6.76314000
 C    3.78230800   23.13844200   -8.24869700
 C    4.49582700   21.81100500   -8.50280500
 C    4.48755700   21.39566600   -9.97462100
 C    5.31070400   22.32052200  -10.86930000
 C    5.36444700   21.80901800  -12.30758900
 C    6.25024400   22.65720900  -13.22143200
 C    5.68607600   24.04939100  -13.48306900
 H    5.53028500   24.23752200   -4.01824600
 H    4.00700300   24.98295200   -4.50581200
 H    4.04613400   23.28348300   -4.03698000
 H    5.47720300   22.77178000   -6.01241900
 H    5.42920000   24.46948000   -6.49073200
 H    2.93534800   24.31776000   -6.67043200
 H    3.02995900   22.59588300   -6.30489500
 H    4.35511100   23.95624900   -8.68939000
 H    2.80764300   23.11033700   -8.74236400
 H    3.99983000   21.03131000   -7.91920900
 H    5.52986600   21.87589300   -8.15974500
 H    3.45683100   21.36780200  -10.33649700
 H    4.89045800   20.38251500  -10.05311800
 H    6.32716300   22.39154500  -10.47429600
 H    4.87390900   23.31883800  -10.85519700
 H    4.35185800   21.77758600  -12.71696900
 H    5.74817400   20.78550000  -12.30133600
 H    6.36105800   22.13826700  -14.17649300
 H    7.24423700   22.74602800  -12.77714800
 H    6.31332500   24.58239500  -14.19372000
 H    4.68198300   23.97999000  -13.89564100
 H    5.64302900   24.63183400  -12.56675700
32
-32.64980076401
 C    4.59508400   23.97322400   -4.57118200
 C    4.89751100   23.65549000   -6.03140100
 C    3.78345300   24.09038600   -6.98471700
 C    2.49059400   23.29728200   -6.79784400
 C    1.45834400   23.56332400   -7.89442900
 C    0.89807400   24.98430000   -7.86614300
 C   -0.20761000   25.17286900   -8.90323300
 C   -0.86920300   26.55034800   -8.84420800
 C    0.05450300   27.69012600   -9.26998000
 C   -0.68209600   29.02419900   -9.30874000
 H    5.44379900   23.70935200   -3.94453400
 H    4.39421100   25.03519100   -4.44807800
 H    3.73017200   23.41559200   -4.22242800
 H    5.06747900   22.58188600   -6.14130300
 H    5.81957100   24.16647900   -6.31886000
 H    4.13123700   23.95409100   -8.01185800
 H    3.58900900   25.15411400   -6.83752000
 H    2.04656700   23.53672900   -5.83019600
 H    2.73217500   22.23131000   -6.79903100
 H    0.63198000   22.85806500   -7.77355300
 H    1.91104000   23.37422000   -8.87087000
 H    1.70248600   25.69342400   -8.06067900
 H    0.49715500   25.19338600   -6.87139900
 H   -0.97434900   24.41134400   -8.73902900
 H    0.20456400   25.01362900   -9.90259600
 H   -1.22562600   26.73561500   -7.82811400
 H   -1.74127500   26.54589500   -9.50302600
 H    0.46122300   27.47145500  -10.26002600
 H    0.89181000   27.76617400   -8.57464100
 H   -0.00965300   29.82419600   -9.60879600
 H   -1.50687800   28.98432200  -10.01692300
 H   -1.08578800   29.26397600   -8.32752500
32
-32.6497751934
 C    4.19463000   23.13813000   -4.04248800
 C    4.72115100   22.99265200   -5.46539200
 C    3.67366200   23.38956200   -6.50322700
 C    4.19368700   23.24563600   -7.93157700
 C    3.14347200   23.63984500   -8.96788400
 C    3.67313100   23.50105000  -10.39346500
 C    2.61083600   23.75012700  -11.46550200
 C    2.00192100   25.15451600  -11.46182300
 C    3.00424600   26.29473100  -11.64918900
 C    3.73570300   26.23913500  -12.98559900
 H    4.95571400   22.85048200   -3.32134000
 H    3.90695700   24.16871300   -3.84685600
 H    3.32236800   22.50566000   -3.89323800
 H    5.02268900   21.95677800   -5.63683600
 H    5.60711000   23.61933900   -5.59066400
 H    3.37180800   24.42561600   -6.33161900
 H    2.78728900   22.76304200   -6.37763700
 H    4.49888700   22.21010800   -8.10131500
 H    5.07888000   23.87390600   -8.05803900
 H    2.83783000   24.67151600   -8.78555300
 H    2.26207000   23.00519300   -8.84742800
 H    4.05740300   22.48617500  -10.52610700
 H    4.51200000   24.18443400  -10.53561000
 H    1.79977500   23.03062300  -11.32627700
 H    3.05221600   23.55402400  -12.44438100
 H    1.46680900   25.31068100  -10.52319900
 H    1.26432800   25.20415600  -12.26711700
 H    3.73138000   26.28552900  -10.83580300
 H    2.45789300   27.23912100  -11.58522500
 H    4.35822000   27.12206000  -13.11126700
 H    4.37576400   25.36287000  -13.04427600
 H    3.02315800   26.20168500  -13.80685600
32
-32.64966599815
 C    5.97207000   24.70895800   -5.06378900
 C    5.99097000   24.03007700   -6.42835300
 C    4.58210700   23.71588100   -6.92729500
 C    4.60160900   23.02874700   -8.29133200
 C    3.20834000   22.80141900   -8.87969000
 C    2.38336600   21.77299000   -8.10824200
 C    1.03843600   21.51282400   -8.78366800
 C    0.23028900   20.39407200   -8.12350000
 C   -0.18391200   20.66208800   -6.67512800
 C   -1.09611300   21.87411600   -6.52378400
 H    6.98388300   24.92424300   -4.72914400
 H    5.41925100   25.64450000   -5.11215500
 H    5.49493500   24.06765800   -4.32604400
 H    6.56468000   23.10259100   -6.36471200
 H    6.49272500   24.67942900   -7.14958600
 H    4.01121700   24.64474800   -7.00031600
 H    4.08449700   23.07538700   -6.19717000
 H    5.11717500   22.06926800   -8.20506400
 H    5.17543400   23.64865000   -8.98498100
 H    3.31818900   22.45877500   -9.91182000
 H    2.66879500   23.75127900   -8.90497300
 H    2.21620400   22.13261300   -7.09308300
 H    2.94267300   20.83618500   -8.04607400
 H    1.21766400   21.23183500   -9.82491500
 H    0.45438000   22.43446200   -8.79416900
 H    0.82042600   19.47448600   -8.15045900
 H   -0.67166100   20.22356600   -8.71677200
 H    0.70431100   20.79442000   -6.05549900
 H   -0.70863200   19.77770700   -6.30524000
 H   -1.44366500   21.95771600   -5.49667000
 H   -0.57230000   22.79147000   -6.77860200
 H   -1.96352500   21.77963100   -7.17350800
32
-32.6496252114
 C    4.47681600   24.19610600   -4.53790800
 C    4.99460700   23.72948300   -5.89341700
 C    4.00240600   24.02836300   -7.01536700
 C    4.51612600   23.54998800   -8.37157800
 C    3.62556100   23.96920000   -9.54295400
 C    2.20075300   23.41245600   -9.51017400
 C    2.14444300   21.88744300   -9.57836300
 C    0.71635900   21.34214900   -9.64104200
 C    0.02099100   21.59790900  -10.97694900
 C   -1.35953700   20.95303400  -11.02275800
 H    5.19878300   23.97545400   -3.75546000
 H    4.29765200   25.26896000   -4.54818200
 H    3.54211800   23.69579200   -4.29444400
 H    5.18471300   22.65415700   -5.85892400
 H    5.94388500   24.22532800   -6.10930600
 H    3.82045800   25.10507200   -7.05777500
 H    3.05432400   23.53911000   -6.78557500
 H    4.62265200   22.46405100   -8.35658000
 H    5.51202500   23.96975600   -8.53622800
 H    4.10371300   23.64948500  -10.47230000
 H    3.56791500   25.06053300   -9.56179600
 H    1.66240600   23.82882400  -10.36372800
 H    1.69204800   23.75234300   -8.60643400
 H    2.63014300   21.47230800   -8.69361900
 H    2.70008000   21.54429500  -10.45451500
 H    0.12582100   21.78651200   -8.83618600
 H    0.74653700   20.26312600   -9.46947300
 H    0.63655100   21.19490400  -11.78450400
 H   -0.08277300   22.67153900  -11.14189200
 H   -1.84175100   21.14799400  -11.97756800
 H   -1.28220700   19.87608400  -10.88996800
 H   -1.99095900   21.35031000  -10.23108800
32
-32.64960449898
 C    3.57427600   22.69866600   -4.92168600
 C    4.74640800   23.46025700   -5.53082700
 C    4.45573700   24.00223700   -6.93178200
 C    3.45027300   25.15189600   -6.93226600
 C    3.09787100   25.64883300   -8.33588800
 C    4.26460400   26.23549700   -9.13316700
 C    4.88928300   27.46771600   -8.48230200
 C    5.94252500   28.11133000   -9.38141300
 C    6.57788400   29.34084200   -8.73589500
 C    7.62631500   29.97910000   -9.63944200
 H    3.85961100   22.27356200   -3.96227600
 H    2.72221400   23.35365500   -4.76070900
 H    3.26662600   21.88802300   -5.57857400
 H    5.60613200   22.78848100   -5.58973300
 H    5.02057400   24.28972100   -4.87485200
 H    4.07750400   23.19196000   -7.55982800
 H    5.39519300   24.34844300   -7.36623900
 H    3.84411500   25.97708800   -6.33630800
 H    2.52547200   24.81868800   -6.45758800
 H    2.32134600   26.41265900   -8.24512600
 H    2.67572200   24.81650300   -8.90465900
 H    3.89114300   26.51425800  -10.12206800
 H    5.03298800   25.47496400   -9.28155800
 H    5.35645200   27.18982400   -7.53594600
 H    4.10530000   28.19747000   -8.26536200
 H    5.48155700   28.40068000  -10.32900800
 H    6.72201800   27.37873700   -9.60478500
 H    7.04164700   29.05198700   -7.78991300
 H    5.79809100   30.07228900   -8.51159900
 H    8.06602800   30.85017700   -9.15989900
 H    8.42079500   29.26966000   -9.86005300
 H    7.17808200   30.29325100  -10.57941500
32
-32.64957670658
 C    4.99090900   23.42309500   -4.81460700
 C    5.16322800   23.49006400   -6.32818200
 C    3.83560700   23.55354500   -7.08469400
 C    3.07721600   24.86202400   -6.86935600
 C    1.80403700   24.91763700   -7.71169600
 C    1.05689600   26.24833300   -7.60454500
 C    0.41680100   26.47200100   -6.23546200
 C   -0.34152000   27.79667300   -6.13394000
 C   -1.62405300   27.83469400   -6.96291000
 C   -2.39282300   29.13307900   -6.74595400
 H    5.95690000   23.29824200   -4.33105100
 H    4.53663800   24.33329300   -4.43259400
 H    4.35892300   22.58082300   -4.54176400
 H    5.70948400   22.60350300   -6.65876900
 H    5.76590000   24.36389800   -6.58612500
 H    3.20481100   22.71673800   -6.77536000
 H    4.03603400   23.43667300   -8.15286800
 H    3.72344100   25.70090600   -7.13928500
 H    2.82015000   24.96145600   -5.81500000
 H    1.13703000   24.10564400   -7.41242900
 H    2.07237100   24.75299100   -8.75850400
 H    0.27814000   26.26494100   -8.36908300
 H    1.74821000   27.06733300   -7.81715600
 H    1.19598000   26.46533500   -5.47129300
 H   -0.26748900   25.64799200   -6.01927100
 H    0.31487000   28.61196000   -6.44749500
 H   -0.60228300   27.96898300   -5.08658300
 H   -2.25625300   26.98816800   -6.68507300
 H   -1.38356700   27.73705100   -8.02269000
 H   -3.30027000   29.14546800   -7.34476800
 H   -2.66962100   29.24250600   -5.69962200
 H   -1.78227100   29.98771900   -7.02890300
32
-32.64957590045
 C    4.67264500   24.14202000   -4.62674400
 C    5.12632200   24.02828200   -6.07799900
 C    3.96952800   24.07350300   -7.07757000
 C    3.06157400   22.84692600   -7.01014100
 C    1.97565000   22.89313500   -8.08358500
 C    1.09215300   21.64458700   -8.11434600
 C    0.17187200   21.52757700   -6.90029700
 C   -0.71038500   20.27849300   -6.93114600
 C   -1.79291800   20.31853700   -8.00831900
 C   -2.70928500   19.10300400   -7.92706500
 H    5.53464500   24.18602500   -3.96525800
 H    4.08326200   25.04497900   -4.48341200
 H    4.06843200   23.28620400   -4.33813100
 H    5.68133800   23.09711700   -6.21276300
 H    5.80770500   24.85337400   -6.29853800
 H    4.38296300   24.14803000   -8.08670900
 H    3.37482500   24.97248000   -6.89881900
 H    2.59752300   22.79405300   -6.02551000
 H    3.66427600   21.94572400   -7.14728000
 H    2.45602300   23.00359500   -9.05925100
 H    1.34850700   23.77372200   -7.92523900
 H    1.72604000   20.75650600   -8.17252700
 H    0.48439600   21.67833500   -9.02024900
 H   -0.46264500   22.41529600   -6.84283600
 H    0.77901700   21.49470900   -5.99396300
 H   -1.19609000   20.17095800   -5.95790100
 H   -0.08213800   19.39766900   -7.08381200
 H   -1.33154100   20.35025700   -8.99653800
 H   -2.38569500   21.22821900   -7.88753300
 H   -3.46986300   19.14438800   -8.70296600
 H   -2.13711700   18.18674100   -8.05484600
 H   -3.20606900   19.06344400   -6.96008900
32
-32.64942375605
 C    3.82193600   23.95782600   -4.56117500
 C    4.12071300   23.94656300   -6.05633100
 C    3.01678200   23.23086900   -6.83379400
 C    3.27308400   23.06431500   -8.33841900
 C    3.62806400   24.37980500   -9.03027900
 C    3.57958000   24.21482300  -10.55400200
 C    4.03691300   22.81467800  -10.98386700
 C    5.03778700   22.25136800   -9.98120900
 C    4.36070600   22.01551300   -8.62639500
 C    7.50709800   25.68694100   -9.47535200
 H    4.60959200   24.47377800   -4.01735300
 H    2.87963300   24.46475100   -4.36518500
 H    3.74873800   22.94189400   -4.17879700
 H    5.07867000   23.45060100   -6.22301600
 H    4.21054900   24.97489800   -6.40935200
 H    2.08639900   23.78863900   -6.69931300
 H    2.86733200   22.23797900   -6.40094900
 H    3.90495300   21.02305100   -8.61042200
 H    7.11279200   25.17983100   -8.60397500
 H    4.62853600   24.68688200   -8.72660100
 H    2.93245000   25.16313200   -8.72396500
 H    4.21950900   24.97125700  -11.01190300
 H    2.56304100   24.38639200  -10.91311800
 H    4.48282900   22.85922100  -11.97896100
 H    3.18057200   22.13967300  -11.03917300
 H    5.86340400   22.95582800   -9.86985400
 H    5.45524500   21.31343700  -10.35181500
 H    5.11869400   22.03554000   -7.84227200
 H    2.33316600   22.71016600   -8.77800000
 H    7.06545200   26.67206500   -9.54769900
 H    8.58122900   25.77647700   -9.38284800
 H    7.26760200   25.11867600  -10.36497000
