59
-96.64063280131
 C  -22.85956600   -2.83938800  -24.32904400
 N  -22.05831400   -1.77796500  -24.67549900
 N  -23.03668000   -2.93403200  -23.03036800
 C  -21.73034000   -1.14254600  -23.51881200
 C  -21.82651500    1.71030500  -19.49757600
 C  -22.36422300   -1.87976300  -22.48338300
 C  -22.18952300    2.54369700  -20.68031900
 N  -20.97792700   -0.06560700  -23.35692800
 N  -21.51897800    0.41545500  -19.76119000
 C  -22.26314700   -1.40165100  -21.18447700
 C  -24.69913200    0.76917200  -23.75062100
 C  -25.17852000    0.32628300  -25.06709800
 N  -24.23497600    2.05272500  -23.72542200
 C  -21.54899900   -0.22078300  -21.01865500
 C  -25.61154600   -0.93368500  -25.21906400
 C  -23.15601100    2.03033600  -21.53881900
 C  -23.45178300   -3.73900700  -25.29977700
 O  -21.81124700    2.12331500  -18.34186400
 C  -21.57318900    3.76555000  -20.95592000
 C  -23.43302400    2.64907300  -22.74968600
 O  -24.70201500    0.02566700  -22.77094700
 C  -20.89509800    0.36898600  -22.11192600
 C  -21.93076500    4.42106300  -22.13134400
 C  -22.81860600    3.86926200  -23.03135900
 C  -26.06431800   -1.57726100  -26.43376100
 C  -20.52066400    4.33900500  -20.05968200
 C  -24.16723000   -4.84769500  -24.84286200
 C  -23.34177600   -3.52233300  -26.67432200
 C  -25.83928000   -1.04006000  -27.70393100
 C  -26.74204700   -2.79546700  -26.33409500
 C  -24.74804800   -5.72223600  -25.73964400
 C  -23.92437900   -4.40291900  -27.56527900
 C  -26.28182100   -1.70078700  -28.83283300
 C  -27.19269100   -3.44735300  -27.46453700
 C  -24.62559500   -5.50448000  -27.10319200
 C  -26.96242100   -2.90314000  -28.71802300
 H  -21.76601200   -1.50676800  -25.59926100
 H  -21.43500300   -0.17944600  -18.94473200
 H  -22.76030100   -1.88728700  -20.36034100
 H  -25.14167600    1.03081500  -25.88252900
 H  -24.30808400    2.58105400  -24.58576700
 H  -25.63068100   -1.54724900  -24.32453300
 H  -23.67160500    1.12018100  -21.28403800
 H  -20.28843700    1.25067200  -21.96832700
 H  -21.47170100    5.37136000  -22.35706600
 H  -23.03111500    4.37909800  -23.95837900
 H  -20.46000900    5.41646000  -20.18313100
 H  -20.73626000    4.10743800  -19.01985600
 H  -19.54832100    3.91043600  -20.30420800
 H  -24.25026300   -4.99709100  -23.77854000
 H  -22.81185600   -2.66398600  -27.05605900
 H  -25.30215800   -0.11037400  -27.80535100
 H  -26.91353200   -3.22179200  -25.35685100
 H  -25.29748300   -6.57651500  -25.37532600
 H  -23.83500400   -4.22601500  -28.62586600
 H  -26.09619200   -1.27849300  -29.80873000
 H  -27.71959200   -4.38421100  -27.36910900
 H  -25.07732100   -6.18927100  -27.80380300
 H  -27.30855800   -3.41543700  -29.60235000
59
-96.63942990376
 C  -28.62825200    5.79909700  -23.47612400
 N  -29.41559500    4.82764200  -22.90966000
 N  -27.45405200    5.34162000  -23.85134900
 C  -28.67471300    3.68721100  -22.88564100
 C  -24.50598200    0.96821300  -22.28956700
 C  -27.43455900    4.02488000  -23.48995500
 C  -23.99534600    2.35771000  -22.11286700
 N  -29.00590300    2.49547800  -22.41791800
 N  -25.76939300    0.83816000  -22.77223300
 C  -26.44688500    3.05373000  -23.55797600
 C  -26.59659400    5.44920200  -20.46919100
 C  -27.31713400    6.72381600  -20.30493600
 N  -25.27893700    5.56542800  -20.78379900
 C  -26.74192600    1.84021300  -22.94456900
 C  -27.07456300    7.82790600  -21.02191800
 C  -24.76194400    3.24935700  -21.36766300
 C  -29.04618300    7.17830400  -23.63541000
 O  -23.84952800   -0.03766300  -22.03708500
 C  -22.80829500    2.77336300  -22.72047500
 C  -24.43242800    4.59704400  -21.32898300
 O  -27.18067100    4.37609300  -20.32041300
 C  -28.03061400    1.60408000  -22.44107800
 C  -22.44116600    4.10936400  -22.58410100
 C  -23.24542400    5.01723900  -21.92869400
 C  -27.80955500    9.07823500  -20.96122500
 C  -21.97091100    1.84271700  -23.54093800
 C  -30.19664200    7.67826100  -23.02498500
 C  -28.26549600    8.03281300  -24.41676700
 C  -28.97069700    9.24668800  -20.20319500
 C  -27.33235100   10.16835300  -21.69378800
 C  -30.56027200    8.99930600  -23.20558600
 C  -28.63649400    9.35049200  -24.59362000
 C  -29.62339800   10.46294900  -20.17654900
 C  -27.98460000   11.38522800  -21.66179800
 C  -29.78706800    9.83661000  -23.99225600
 C  -29.13321100   11.53725000  -20.90279800
 H  -30.34543200    4.93005200  -22.53897300
 H  -26.11279900   -0.11647000  -22.76104400
 H  -25.49365000    3.24560300  -24.02120000
 H  -28.15803400    6.65608300  -19.63106400
 H  -24.91746400    6.50965500  -20.83413900
 H  -26.26666700    7.82396400  -21.74341500
 H  -25.64592100    2.90650300  -20.85557600
 H  -28.27945400    0.64108300  -22.01793400
 H  -21.52067700    4.44582000  -23.03578400
 H  -22.96264200    6.05784400  -21.88965300
 H  -20.95280800    2.21339500  -23.61652300
 H  -21.95968400    0.84857100  -23.10169000
 H  -22.38222500    1.75891000  -24.54718100
 H  -30.80334900    7.04524400  -22.39640000
 H  -27.37671000    7.63224300  -24.87638400
 H  -29.36797900    8.41897900  -19.63734700
 H  -26.43886100   10.05421700  -22.28909100
 H  -31.45086800    9.37783100  -22.72831100
 H  -28.02964200   10.00200200  -25.20284400
 H  -30.52043400   10.57608500  -19.58665100
 H  -27.59907000   12.21687300  -22.23132600
 H  -30.07853600   10.86571900  -24.13204700
 H  -29.64646100   12.48613300  -20.87793200
