24
-65.05289793939
 C   -0.86587700   29.62098700    6.21071500
 C   -0.04035400   28.57309800    6.61019900
 N    1.14288800   29.17853700    7.01512200
 N    1.10231700   30.51022600    6.88752800
 C   -0.10878300   30.77011400    6.40512200
 N   -0.20513300   27.25277700    6.63513500
 C    0.81358800   26.52573700    7.06642800
 C    2.02130800   27.08178900    7.51745200
 C    2.19567300   28.45605300    7.48303000
 N    3.28121700   29.13747600    7.88219700
 C    0.61267700   25.06802200    7.06552400
 C    4.52344000   28.49395900    8.23554900
 C    5.09536300   27.64607200    7.12314300
 C    5.81653400   26.49224100    7.40781700
 C    6.32867100   25.74775600    6.35850200
 N    6.17035400   26.07157300    5.08458200
 C    5.48011900   27.16807400    4.81483200
 C    4.92809500   27.98690300    5.78619600
 C   -0.64409700   24.53850100    7.35699600
 C   -0.86274600   23.17437400    7.36364900
 C    0.17125400   22.30031800    7.06798200
 C    1.42479900   22.79732800    6.75558200
 C    1.62510800   24.16338300    6.75986700
 F    2.86820700   24.61627700    6.41713200
24
-65.0528978213
 C   -2.35354700   26.98644700    6.27623400
 C   -1.16275300   26.61257100    5.65870500
 N   -0.23200700   27.56209200    6.06165500
 N   -0.76553200   28.48566100    6.87026800
 C   -2.04094100   28.13295600    6.99676900
 N   -0.84713700   25.61546400    4.83595600
 C    0.40478400   25.55800400    4.40957600
 C    1.39663900   26.46857100    4.80751700
 C    1.06521200   27.51261500    5.65638500
 N    1.89464100   28.45602200    6.12910500
 C    0.72126800   24.45547800    3.48814800
 C    3.25015100   28.61640100    5.66027500
 C    3.33990400   28.85916300    4.17154900
 C    2.36889400   29.58679000    3.49370800
 C    2.50807200   29.77472900    2.12853500
 N    3.52371900   29.30369600    1.42257000
 C    4.44813400   28.61122700    2.06943300
 C    4.40552400   28.36119300    3.43090600
 C    0.08815300   23.22196600    3.63926900
 C    0.36540000   22.16576500    2.79306300
 C    1.27920500   22.31861200    1.76241900
 C    1.90759800   23.53756400    1.57465300
 C    1.62160000   24.57963500    2.43415500
 F    2.23960300   25.77523200    2.19673100
24
-65.05285044537
 C    4.22764300   23.73347800    3.68652600
 C    4.04971800   24.95119100    3.03473700
 N    3.45224800   25.78126900    3.97501000
 N    3.25848500   25.16505400    5.14711300
 C    3.72510400   23.93351400    4.96674200
 N    4.34981400   25.37124000    1.80829300
 C    4.05331400   26.62653600    1.51038600
 C    3.41994000   27.50210500    2.40699400
 C    3.11696900   27.06740400    3.68737600
 N    2.51142500   27.77598300    4.65347000
 C    4.41200400   27.06806700    0.15353400
 C    2.25109300   29.19087400    4.54200900
 C    3.49730300   30.01247000    4.30672000
 C    3.44856200   31.17593000    3.54753000
 C    4.61308400   31.90162500    3.36047000
 N    5.78498300   31.54924800    3.86547800
 C    5.83061100   30.43973000    4.58557500
 C    4.72675200   29.64227000    4.83881000
 C    4.33795000   26.16918900   -0.91048000
 C    4.66315800   26.55326600   -2.19698200
 C    5.08293000   27.84894400   -2.45336200
 C    5.18715100   28.75720600   -1.41411900
 C    4.85250900   28.35607000   -0.13599900
 F    4.99858300   29.27305500    0.86682300
24
-65.0528391147
 C    0.45639300   24.42298000    9.25813400
 C    0.45749300   25.33702700    8.20759700
 N    1.75372400   25.83535000    8.16254100
 N    2.54034300   25.29140000    9.09884900
 C    1.75403800   24.44402300    9.75518500
 N   -0.48204600   25.72776800    7.35021400
 C   -0.13385100   26.62338600    6.43966400
 C    1.15010500   27.18665200    6.36515000
 C    2.13084800   26.77253400    7.25220900
 N    3.39550100   27.21807900    7.31480100
 C   -1.18825800   27.02458900    5.49514500
 C    3.97562200   28.07604200    6.30908000
 C    3.93776800   27.47504500    4.92312300
 C    4.10848300   26.11053600    4.71940500
 C    4.06299700   25.61845700    3.42574500
 N    3.86934300   26.37724100    2.35847800
 C    3.70708400   27.67622100    2.55358500
 C    3.73199000   28.27241400    3.80357600
 C   -2.51286500   27.09837700    5.92542000
 C   -3.52620000   27.47427000    5.06488100
 C   -3.24213300   27.77757300    3.74280300
 C   -1.93967100   27.69311900    3.28174300
 C   -0.93992700   27.32119000    4.15830600
 F    0.32754700   27.22023700    3.65708300
24
-65.05233911086
 C    0.28036100   32.65930700    9.35592800
 C    1.60028000   32.35037400    9.67535700
 N    2.13491400   31.80311300    8.51608600
 N    1.24341400   31.75331700    7.51899700
 C    0.13028100   32.26959400    8.03044300
 N    2.31648300   32.49127800   10.78733100
 C    3.57645500   32.08466400   10.75306500
 C    4.16546100   31.50397400    9.61802300
 C    3.42126000   31.36581100    8.45650500
 N    3.84271300   30.86124400    7.28761100
 C    4.33348700   32.25080600   12.00383300
 C    5.16087900   30.31191100    7.08952200
 C    5.42991100   29.09097900    7.93685100
 C    4.41568000   28.20656500    8.28520200
 C    4.72973800   27.10663600    9.06677700
 N    5.95106600   26.84186000    9.50348800
 C    6.91774300   27.68158300    9.16550200
 C    6.71387300   28.81251000    8.39228000
 C    3.66518300   32.16603200   13.22599700
 C    4.33611100   32.31344400   14.42418800
 C    5.69996400   32.55945400   14.43456400
 C    6.38722600   32.66818800   13.23837300
 C    5.69917000   32.51339200   12.05135600
 F    6.41286800   32.66259400   10.89498900
24
-65.0523323214
 C    0.31765900   32.29328800    7.70015600
 C    1.08604500   31.99559500    6.57746500
 N    1.94942300   30.98717700    6.98637500
 N    1.76454000   30.64810000    8.26794200
 C    0.78191400   31.43693700    8.69137500
 N    1.10171800   32.48235900    5.33963700
 C    1.98236900   31.96560600    4.49612300
 C    2.86655400   30.93212100    4.84575500
 C    2.85472300   30.43008300    6.13791300
 N    3.64523400   29.46653700    6.63208400
 C    1.96646700   32.52497400    3.13524000
 C    4.64294100   28.77885500    5.85065400
 C    4.05506700   27.96354600    4.72355800
 C    2.81597300   27.34490800    4.84156100
 C    2.33244800   26.61183600    3.77004600
 N    2.98835700   26.45929800    2.63023000
 C    4.17170500   27.04369200    2.52146200
 C    4.74620100   27.80255700    3.52780100
 C    0.76390500   32.98065800    2.59369700
 C    0.70449600   33.51247200    1.32037900
 C    1.85310400   33.61159400    0.55131900
 C    3.06422000   33.18501200    1.06754100
 C    3.10175300   32.65244000    2.34078100
 F    4.32461500   32.27546900    2.82185100
24
-65.05231905061
 C   -0.85577300   29.70065100    8.70949600
 C    0.14254700   28.74988100    8.90639500
 N    1.28293200   29.29776900    8.33309100
 N    1.05510400   30.50484200    7.80132400
 C   -0.23274200   30.74130400    8.03104700
 N    0.14719900   27.55349200    9.48777500
 C    1.29303700   26.88966200    9.50016000
 C    2.47354600   27.38398600    8.92168700
 C    2.47021400   28.63444600    8.32322400
 N    3.51293600   29.25295800    7.75019700
 C    1.25515700   25.56372600   10.13679400
 C    4.82158600   28.65959300    7.63276800
 C    4.83992600   27.42199600    6.76734600
 C    5.74312400   26.39511900    7.01938200
 C    5.72936600   25.27764200    6.20123200
 N    4.89478500   25.12507200    5.18435900
 C    4.03736500   26.10457500    4.94394800
 C    3.96888300   27.26648400    5.69542000
 C    0.08339000   24.80830400   10.07817000
 C    0.00482900   23.55707500   10.65774100
 C    1.09863500   23.02628500   11.32286500
 C    2.26882700   23.75951700   11.41473600
 C    2.32838700   25.00657100   10.82522300
 F    3.49265000   25.70829300   10.97009400
24
-65.05230609864
 C    8.66361400   31.37034900    5.50676000
 C    8.09256900   30.22415200    4.95942800
 N    7.28981900   29.70308000    5.96622900
 N    7.32702800   30.44359700    7.08072200
 C    8.15494100   31.44439900    6.79794700
 N    8.19893800   29.64405800    3.76710100
 C    7.50322500   28.53486000    3.56827200
 C    6.66059600   27.97159300    4.54036300
 C    6.55541000   28.57277100    5.78521500
 N    5.81621500   28.15024200    6.82113300
 C    7.63922200   27.92752100    2.23502600
 C    4.96633900   26.98732700    6.76801700
 C    3.82598500   27.12379800    5.78706100
 C    3.29703300   26.00178500    5.15827600
 C    2.24880200   26.16672500    4.26840400
 N    1.71656200   27.34329100    3.97405000
 C    2.21935100   28.40996900    4.57523700
 C    3.26343800   28.35815200    5.48470500
 C    7.85470500   28.74668100    1.12618700
 C    7.98570100   28.21829000   -0.14322400
 C    7.91284200   26.84845400   -0.33980000
 C    7.71849500   26.00840500    0.74281700
 C    7.58569300   26.55651800    2.00298300
 F    7.42896200   25.68748400    3.04655600
24
-65.05230576848
 C    8.13326900   32.44114900    7.72694500
 C    7.36422900   31.85747000    6.72337100
 N    6.46029300   31.03929500    7.38859700
 N    6.62324200   31.07621800    8.71610500
 C    7.63022300   31.92140000    8.91346300
 N    7.38422700   31.95748000    5.39695500
 C    6.50381800   31.23486800    4.72246600
 C    5.55445200   30.40390800    5.34075900
 C    5.53041400   30.30314800    6.72203300
 N    4.66428200   29.59932400    7.47207900
 C    6.55236900   31.37386400    3.25836200
 C    3.79819400   28.57292400    6.93503900
 C    4.57704000   27.37712100    6.43796900
 C    5.45150000   26.70239500    7.28403200
 C    6.16639200   25.62717200    6.78429400
 N    6.06637600   25.19820600    5.53496600
 C    5.23091300   25.83772000    4.73256500
 C    4.46844400   26.92536700    5.12935800
 C    6.90493200   32.60094600    2.69571000
 C    6.95312000   32.77547200    1.32630100
 C    6.65885900   31.72021300    0.47747800
 C    6.32609300   30.48515100    1.00599500
 C    6.27835200   30.33209100    2.37748700
 F    5.97286100   29.08964000    2.85640300
24
-65.0521690594
 C    5.31763800   33.86728800    4.68355000
 C    4.42642500   33.25894800    5.56326500
 N    5.16636300   32.27615200    6.20879600
 N    6.43563400   32.23847900    5.78758000
 C    6.52092800   33.19792400    4.87146400
 N    3.13614500   33.45586500    5.82033600
 C    2.57690300   32.67380400    6.72918200
 C    3.28058600   31.68292500    7.43361100
 C    4.62199500   31.46859800    7.16034200
 N    5.45865800   30.60377100    7.76168500
 C    1.14745000   32.91021000    6.98666000
 C    5.04402400   29.44103800    8.51975800
 C    4.77005800   28.27063100    7.60430800
 C    5.73955200   27.30065000    7.37648300
 C    5.46074900   26.27282600    6.48991100
 N    4.31452900   26.16216700    5.83639400
 C    3.39206900   27.08632200    6.05389600
 C    3.56478700   28.15439900    6.92040900
 C    0.63956000   34.20819800    6.94339600
 C   -0.69740300   34.46167200    7.18222300
 C   -1.56721300   33.41930200    7.46090300
 C   -1.09628100   32.11794500    7.48933900
 C    0.24398800   31.88666100    7.25402000
 F    0.66825300   30.58691000    7.25871700
24
-65.05187164003
 C    1.73217300   27.28032500   12.62725800
 C    1.73848000   28.07272800   11.48245300
 N    2.98826000   27.87343800   10.91008100
 N    3.73995100   27.02025500   11.61593200
 C    2.97961400   26.66760700   12.64736400
 N    0.82949900   28.87508000   10.93414000
 C    1.16115000   29.47876100    9.80386700
 C    2.41682400   29.33567700    9.19134900
 C    3.36678500   28.50254400    9.76341500
 N    4.62176200   28.27780400    9.34320600
 C    0.12801100   30.34688900    9.21636700
 C    5.18155500   28.73475300    8.09849200
 C    4.88684400   27.84618900    6.91124900
 C    3.74081600   27.06608600    6.82696400
 C    3.53702700   26.29985600    5.68928100
 N    4.37649400   26.26517300    4.66765700
 C    5.46953000   27.00985400    4.74886000
 C    5.77082200   27.80999500    5.83727700
 C   -0.71884500   31.07595100   10.05081500
 C   -1.69670400   31.90290600    9.53266900
 C   -1.86158000   32.01505100    8.16122300
 C   -1.05072000   31.28636800    7.30833000
 C   -0.07572000   30.46983800    7.84557300
 F    0.68345400   29.74049800    6.97343100
24
-65.05103374895
 C   -1.28247900   27.19920400    7.23962200
 C   -0.21435900   27.07179200    6.35621900
 N    0.81777300   27.80583500    6.92653700
 N    0.46023400   28.36734000    8.08779200
 C   -0.80430000   28.00094300    8.26949800
 N   -0.06735400   26.41959400    5.20428100
 C    1.10995600   26.50856800    4.61250300
 C    2.18959000   27.24145500    5.13358600
 C    2.03963900   27.91199100    6.33668300
 N    2.96230500   28.65657600    6.96433300
 C    1.29029600   25.77809100    3.34635500
 C    4.33332300   28.74747100    6.52235600
 C    5.02532700   27.40580300    6.47464500
 C    4.76591100   26.42245300    7.42250700
 C    5.42391000   25.20738100    7.32038700
 N    6.29704100   24.92463600    6.36643800
 C    6.54895300   25.86433500    5.46801500
 C    5.94527700   27.11119500    5.47449200
 C    2.45007700   25.04253400    3.10733100
 C    2.62150400   24.34557400    1.92586100
 C    1.63789600   24.37214900    0.95048100
 C    0.47968400   25.10136400    1.15796200
 C    0.32271200   25.78580200    2.34729700
 F   -0.80890000   26.52579000    2.50820100
24
-65.0510325462
 C    7.68898200   32.07957600    9.76110000
 C    7.20314900   31.71792400    8.50790500
 N    6.23245500   30.75648200    8.75807200
 N    6.09233200   30.50487600   10.06523200
 C    6.96901600   31.30487600   10.66326500
 N    7.51224600   32.10736400    7.27247000
 C    6.84188000   31.54642600    6.28246700
 C    5.84298600   30.57641400    6.47055300
 C    5.53007400   30.16224900    7.75511100
 N    4.60905000   29.25253100    8.10606400
 C    7.18898700   31.95756200    4.91158800
 C    3.87295400   28.46425800    7.14713000
 C    4.76759400   27.63326300    6.25809300
 C    5.94196600   27.06451100    6.73806700
 C    6.72520500   26.31986800    5.87112800
 N    6.41723500   26.11169100    4.60055000
 C    5.29501100   26.64767500    4.14592200
 C    4.44150700   27.41206600    4.92466200
 C    7.33550300   31.01089300    3.89902700
 C    7.67721900   31.38844300    2.61387400
 C    7.87538100   32.72522800    2.30815500
 C    7.72666900   33.68748400    3.29219000
 C    7.39141300   33.29100100    4.57202800
 F    7.21403800   34.26174400    5.51043000
24
-65.05103251314
 C    1.80193000   29.57384600    1.90830400
 C    3.02961500   29.37004200    2.53171200
 N    2.73641400   29.26603900    3.88548500
 N    1.42651300   29.38838900    4.13221500
 C    0.87020400   29.57565000    2.93988900
 N    4.27250200   29.25994400    2.06562600
 C    5.22867100   29.05832000    2.95399200
 C    4.99829100   28.95617600    4.33614000
 C    3.70394100   29.05868800    4.81973500
 N    3.31511100   28.98506700    6.10144600
 C    6.60500400   28.91205200    2.45002800
 C    4.21219900   28.64128400    7.17833000
 C    4.87642400   27.29823200    6.98791200
 C    6.18141600   27.08229900    7.41709100
 C    6.75373800   25.83701400    7.21572000
 N    6.12553300   24.82935900    6.62955400
 C    4.88210400   25.03459800    6.22460600
 C    4.21370600   26.23834500    6.37949200
 C    7.43538300   27.90218900    2.93353500
 C    8.72389800   27.74946400    2.45666600
 C    9.21610100   28.60842800    1.48737000
 C    8.41624100   29.62588800    0.99618900
 C    7.12920000   29.75883900    1.47942500
 F    6.37794900   30.79165000    1.00693900
24
-65.05101357682
 C    9.01096400   26.56185100   10.13675100
 C    7.69321700   26.17065500    9.91380300
 N    7.15622300   27.15427500    9.09377300
 N    8.04431500   28.11091500    8.79976000
 C    9.15759400   27.74919700    9.42992300
 N    6.98127600   25.12412700   10.32258900
 C    5.72163900   25.05616000    9.92134800
 C    5.13053300   26.01073100    9.07679900
 C    5.87048400   27.10186100    8.64889100
 N    5.45861700   28.13373600    7.89327700
 C    4.96737500   23.88316900   10.39189500
 C    4.25019200   28.15375900    7.09660600
 C    4.48384100   27.50377100    5.75273800
 C    4.26829900   26.14506700    5.55537100
 C    4.55224100   25.59789200    4.31363800
 N    5.02147800   26.30043100    3.29499400
 C    5.22617900   27.59512200    3.48313900
 C    4.97854800   28.24190600    4.68316400
 C    5.63504900   22.67399200   10.59093900
 C    4.96658700   21.54734400   11.02853800
 C    3.60651000   21.60003800   11.28987300
 C    2.92034700   22.78998100   11.12123900
 C    3.60593000   23.90374800   10.67863800
 F    2.89466600   25.06493500   10.55568700
24
-65.0510072422
 C   -1.14160800   30.99301400    7.10977600
 C   -0.69922100   30.09509700    6.14259900
 N    0.44268700   29.51529600    6.68072900
 N    0.72902100   29.99267400    7.89796500
 C   -0.22817800   30.87913300    8.15137600
 N   -1.15446000   29.77334500    4.93309500
 C   -0.47458300   28.86233200    4.26074500
 C    0.68216700   28.23463900    4.75258300
 C    1.16004800   28.57495300    6.00769000
 N    2.23720000   28.06510800    6.62403000
 C   -0.95859000   28.50949500    2.91517300
 C    3.16517500   27.17222000    5.97171200
 C    3.79834700   27.78220200    4.74340900
 C    4.04358100   27.01802600    3.60812200
 C    4.61910900   27.62683600    2.50457200
 N    4.95184300   28.90783100    2.46614800
 C    4.72124500   29.63389100    3.54882100
 C    4.15251900   29.12615300    4.70556700
 C   -0.06906100   28.38021000    1.84965000
 C   -0.51699000   28.05948000    0.58180800
 C   -1.86731300   27.85372000    0.34957300
 C   -2.77183300   27.96719800    1.39126400
 C   -2.30690000   28.29520500    2.64979600
 F   -3.21395700   28.36162200    3.66317700
24
-65.05090105027
 C    6.49330300   34.11458100    5.38860800
 C    5.82758300   33.33696200    6.33169300
 N    6.48186900   32.11167100    6.31930200
 N    7.49154500   32.08427500    5.44068400
 C    7.49425800   33.29164300    4.88541700
 N    4.78395800   33.57420100    7.12409200
 C    4.39282900   32.58788500    7.91045100
 C    5.01456300   31.32842300    7.94789000
 C    6.09974900   31.08118600    7.12227600
 N    6.81262600   29.94712000    7.04565100
 C    3.22594500   32.83498800    8.77484300
 C    6.46727300   28.74447500    7.75936100
 C    5.13266100   28.15437900    7.36656000
 C    4.50089900   27.24668300    8.21130600
 C    3.27944400   26.71727400    7.83152600
 N    2.66524400   27.03145100    6.70038900
 C    3.26818100   27.89217800    5.89646200
 C    4.49411000   28.47624800    6.17553800
 C    2.21439400   31.88398800    8.89738500
 C    1.10983000   32.11697900    9.69537600
 C    0.99273100   33.30647500   10.39597200
 C    1.98712800   34.26472500   10.29990400
 C    3.08009500   34.01736300    9.49260500
 F    4.06140100   34.96039600    9.44791500
24
-65.05051392575
 C    8.38559600   32.77649500    7.35532300
 C    8.15661800   31.59273500    6.65984400
 N    6.84674300   31.24235200    6.96026400
 N    6.26417800   32.11812500    7.78799000
 C    7.19442000   33.03796800    8.02229100
 N    8.92036400   30.85230900    5.85903100
 C    8.37991700   29.75520300    5.36083000
 C    7.06169500   29.34641300    5.62632900
 C    6.26604200   30.11893900    6.45730700
 N    4.98774000   29.88986800    6.79470500
 C    9.22255400   28.93387500    4.47456600
 C    4.27892600   28.68477400    6.44242700
 C    4.88043300   27.43499300    7.04129200
 C    5.56654200   27.45783500    8.24956100
 C    6.09045200   26.27311200    8.74174400
 N    5.97149400   25.10720000    8.12692200
 C    5.31173600   25.08520900    6.97850400
 C    4.75351700   26.21002800    6.39482700
 C    8.72071600   28.42158000    3.27974300
 C    9.51471200   27.66341400    2.43954900
 C   10.83072100   27.39329800    2.77774200
 C   11.35227700   27.88138700    3.96344900
 C   10.54632000   28.64301100    4.78674000
 F   11.07438900   29.07847800    5.96424100
24
-65.05049033451
 C    0.49962600   32.40937600    7.56650200
 C    1.59259700   32.09127500    6.76555400
 N    1.98351500   30.82228700    7.17170200
 N    1.20987900   30.34247200    8.15304400
 C    0.31947200   31.30113500    8.38607900
 N    2.22440900   32.74924000    5.79496100
 C    3.24689700   32.13809100    5.22517500
 C    3.69259100   30.85672800    5.59239600
 C    3.03543000   30.17274100    6.60259000
 N    3.34026000   28.95998200    7.08857600
 C    3.95211300   32.86013200    4.15166700
 C    4.34873500   28.10697300    6.50873800
 C    4.04768400   27.71450100    5.08148400
 C    2.74358000   27.52671600    4.63834000
 C    2.53351200   27.16608300    3.31729600
 N    3.51052900   26.98423900    2.44280900
 C    4.75281200   27.15757000    2.86742600
 C    5.07485100   27.52138200    4.16452400
 C    5.34452300   32.90368200    4.11360600
 C    6.00927200   33.59144600    3.11547600
 C    5.29610900   34.24772900    2.12566500
 C    3.91233000   34.21256700    2.13338300
 C    3.26542100   33.52667600    3.14261900
 F    1.90495500   33.47635900    3.10449400
24
-65.05047647307
 C    6.48126600   31.55639400   10.14247900
 C    5.77432800   30.47558200    9.62356600
 N    5.98718800   30.52652300    8.25212600
 N    6.76391500   31.55731200    7.89711000
 C    7.05764000   32.17271100    9.03780700
 N    5.02393100   29.53161700   10.18833300
 C    4.47856500   28.63823300    9.38316700
 C    4.65669900   28.63462400    7.98906000
 C    5.43966600   29.61560000    7.40188600
 N    5.73101900   29.74453300    6.09851800
 C    3.64816500   27.59096600   10.00283500
 C    5.13752500   28.92567400    5.07058000
 C    3.63899700   29.08511200    4.96611600
 C    2.84025200   28.02535100    4.55025200
 C    1.47146800   28.21556700    4.46009900
 N    0.87029000   29.35865300    4.75353800
 C    1.63164900   30.36693200    5.14797600
 C    3.00964300   30.28681800    5.26871300
 C    3.78052000   26.25582200    9.62611400
 C    3.01377100   25.26865900   10.21660800
 C    2.08934600   25.59447600   11.19564800
 C    1.92987500   26.91411700   11.58195800
 C    2.70989500   27.88576100   10.98610600
 F    2.50531500   29.17966800   11.35879400
24
-65.05035598471
 C    7.34737600   24.51002400    6.99535000
 C    6.03488200   24.86396400    7.29697600
 N    5.82907100   26.07773100    6.65457500
 N    6.91374300   26.48846300    5.98588200
 C    7.82307400   25.54197000    6.19507900
 N    5.08269400   24.27244300    8.01312500
 C    3.91576200   24.89244400    8.09445000
 C    3.65704900   26.13296900    7.48896000
 C    4.64550200   26.74740000    6.73420100
 N    4.58351400   27.92183300    6.09300100
 C    2.88876200   24.21082400    8.89865700
 C    3.42286000   28.76125900    5.93641800
 C    3.21038000   29.15810000    4.49841400
 C    3.46698900   28.27069400    3.45922200
 C    3.23646400   28.68445100    2.15722800
 N    2.77747900   29.88531200    1.84088400
 C    2.52953200   30.72777600    2.83189700
 C    2.72912300   30.41949600    4.16783600
 C    3.27185300   23.46190800   10.01162200
 C    2.33852900   22.80891900   10.79300500
 C    0.99110000   22.87903200   10.47630400
 C    0.58211800   23.59770300    9.36643600
 C    1.53009800   24.24733000    8.60141800
 F    1.08773100   24.92010800    7.49617900
24
-65.05029500198
 C    8.85078500   29.53006100    8.31743300
 C    7.68162200   28.78580600    8.19014200
 N    7.24977400   29.00693400    6.88835400
 N    8.06601000   29.82780700    6.21588200
 C    9.02684600   30.13788500    7.07972400
 N    7.00986600   28.00631600    9.03518900
 C    5.90348100   27.44593300    8.58075000
 C    5.41349700   27.63196600    7.27744400
 C    6.11602400   28.43678000    6.39342100
 N    5.82567100   28.69353000    5.10829600
 C    5.14566800   26.59653200    9.51602100
 C    4.62636900   28.27799500    4.43145000
 C    3.42599900   29.16731000    4.66355100
 C    2.35353300   29.11781200    3.77754500
 C    1.25089800   29.91991300    4.01501400
 N    1.15328100   30.74319000    5.04882500
 C    2.17295300   30.78980800    5.89006000
 C    3.32447400   30.03027100    5.74669400
 C    3.76379900   26.72580000    9.64084000
 C    3.05131800   25.94137300   10.52875200
 C    3.70417000   25.00155400   11.30988400
 C    5.07492200   24.84422800   11.19764500
 C    5.77078300   25.64175400   10.31036600
 F    7.11246600   25.43873900   10.19278600
24
-65.05012514808
 C    9.79175400   28.00897700    7.00112500
 C    8.55773400   28.59536000    7.26685000
 N    7.62500900   27.78026600    6.63881400
 N    8.19688500   26.74680700    6.00892600
 C    9.49949300   26.89036000    6.22943300
 N    8.20127200   29.68197800    7.94828700
 C    6.91133000   29.96114200    7.99993600
 C    5.91992400   29.17952300    7.38187700
 C    6.28938500   28.04481200    6.67628200
 N    5.48462000   27.16524100    6.05913700
 C    6.51598900   31.15903400    8.76032800
 C    4.06446800   27.32412900    5.89614100
 C    3.65184400   28.24714500    4.77203600
 C    2.32091200   28.27242200    4.36378900
 C    1.95111500   29.12530100    3.33903100
 N    2.79925100   29.92911300    2.71330700
 C    4.06293600   29.90475700    3.10232900
 C    4.54033100   29.08984100    4.11818600
 C    5.42340600   31.13029900    9.62536500
 C    5.06299900   32.24605100   10.35760800
 C    5.78482000   33.42252300   10.23867600
 C    6.86859600   33.48236300    9.37967500
 C    7.21791100   32.35585200    8.66097600
 F    8.26346100   32.45724700    7.79440100
24
-65.0500795522
 C    0.72657400   30.10099200   12.46238500
 C    1.09779900   30.64273400   11.23535000
 N    2.43446400   30.30083200   11.07605500
 N    2.90230800   29.58929600   12.10881900
 C    1.87117200   29.47203400   12.93867800
 N    0.43384100   31.34524700   10.31950100
 C    1.10203800   31.69856800    9.23672200
 C    2.45292400   31.38064500    9.01472900
 C    3.14760600   30.65636700    9.97124700
 N    4.44171600   30.29941200    9.95200600
 C    0.37079200   32.47470500    8.21987200
 C    5.32984400   30.47205400    8.83374100
 C    5.23590300   29.39489200    7.77736300
 C    4.16307600   28.51773300    7.68872800
 C    4.15600500   27.57219900    6.67428900
 N    5.11788900   27.45423400    5.77414400
 C    6.14078200   28.29262800    5.85863000
 C    6.24949300   29.27086000    6.83138600
 C    0.93776000   33.60706000    7.63864600
 C    0.24629700   34.34762100    6.69798600
 C   -1.02865800   33.96872100    6.31036300
 C   -1.61165600   32.84177800    6.86390800
 C   -0.90868400   32.11880200    7.80760000
 F   -1.49040300   30.99335000    8.30797500
24
-65.04998448293
 C    0.89611200   32.80244100    5.31696700
 C    1.68651800   32.46180700    6.41164500
 N    2.11675900   31.16574800    6.15905400
 N    1.64871300   30.69192700    4.99807400
 C    0.91537200   31.68070000    4.49667400
 N    2.03188400   33.11920800    7.51548200
 C    2.80191200   32.48146600    8.38324800
 C    3.28143100   31.17739900    8.17649100
 C    2.92882300   30.49529400    7.02156600
 N    3.31432900   29.26655900    6.65268900
 C    3.15698700   33.23924500    9.59409000
 C    4.11268000   28.37245300    7.45573100
 C    4.71956000   27.28255300    6.61647400
 C    4.86272000   25.99334300    7.11631400
 C    5.44973200   25.02784400    6.31421400
 N    5.88327400   25.26170500    5.08532600
 C    5.74665000   26.49014300    4.61061800
 C    5.17929300   27.53127700    5.32756000
 C    3.34408700   34.61920600    9.51221700
 C    3.68043500   35.36502000   10.62527500
 C    3.83036600   34.75025000   11.85824400
 C    3.63120800   33.38558400   11.97488600
 C    3.30052000   32.65729100   10.84956600
 F    3.08098400   31.31798400   11.01337200
24
-65.04995877655
 C    5.03586900   22.80686500    5.96448300
 C    4.39340700   23.78600100    6.71786700
 N    4.35210200   24.90603700    5.89763000
 N    4.91961400   24.68443500    4.70583200
 C    5.32915300   23.42064000    4.75259600
 N    3.88966200   23.79146800    7.94898700
 C    3.34524600   24.92043400    8.37559000
 C    3.25850100   26.07980200    7.58715400
 C    3.78025000   26.07306200    6.30219200
 N    3.76102600   27.07709200    5.41517200
 C    2.80149100   24.88525600    9.74274200
 C    3.27454900   28.40749000    5.69269800
 C    3.08768600   29.19455000    4.42583600
 C    2.58271300   28.60208700    3.27310000
 C    2.41491900   29.38402700    2.14161900
 N    2.70365800   30.67526700    2.09349000
 C    3.17848200   31.23900100    3.19311800
 C    3.39084400   30.55020100    4.37670400
 C    2.24544300   23.70201000   10.22994800
 C    1.72074300   23.62685300   11.50550500
 C    1.74612800   24.73532000   12.33699500
 C    2.31025300   25.91728500   11.88951000
 C    2.82495500   25.97324300   10.60961200
 F    3.40161500   27.14966900   10.21939400
24
-65.04995578651
 C    8.52067400   32.60082800    9.43095800
 C    7.17696700   32.25953600    9.56153100
 N    7.05418500   31.02466800    8.93833500
 N    8.21751500   30.58809000    8.44106000
 C    9.09541700   31.54025000    8.74070800
 N    6.14123400   32.87125500   10.12992200
 C    4.97340900   32.24905200   10.08879200
 C    4.78314400   31.00813300    9.45852800
 C    5.86160200   30.37332300    8.86085900
 N    5.85026900   29.20794200    8.20027300
 C    3.85425200   32.95531500   10.73306700
 C    4.70253100   28.33812000    8.09509100
 C    4.92871600   27.26324500    7.06920900
 C    4.48171200   25.96476500    7.28365800
 C    4.69500300   25.01421100    6.29788000
 N    5.31006100   25.27123600    5.15425800
 C    5.73469300   26.50880600    4.95080600
 C    5.56938700   27.53657000    5.86513400
 C    3.80946700   34.34922600   10.69907100
 C    2.77516900   35.04868800   11.29000100
 C    1.75736200   34.37101700   11.94235400
 C    1.78503900   32.98896100   12.01046100
 C    2.82488800   32.30819800   11.40924900
 F    2.83148700   30.94631000   11.52722700
