73
-112.73494441836
 C  -13.90540700  -43.03803000   15.00349300
 N  -13.64097300  -42.50818400   16.34961800
 C  -14.51561400  -43.15504200   17.33886200
 C  -12.21716900  -42.63458700   16.73326200
 C  -11.35467300  -41.61298300   15.99460500
 O  -11.99361500  -40.35148600   16.18141100
 C  -11.36477700  -39.21581500   15.78365600
 C  -10.09919600  -39.17294000   15.21099900
 C   -9.55606600  -37.95740800   14.84640900
 C  -12.07679500  -38.02890600   15.96895700
 C  -11.53689200  -36.82283100   15.59005500
 C  -10.26232100  -36.76799800   15.02057400
 C   -9.66349100  -35.50860300   14.63586400
 O   -8.31096000  -35.50798100   14.37424700
 C  -10.18616500  -34.25474500   14.48395100
 C   -9.10581500  -33.41207400   14.10546900
 C   -7.98083000  -34.25152000   14.05414200
 N   -6.73802000  -33.87271100   13.76658200
 C   -6.64669100  -32.57331400   13.53004300
 N   -7.59660200  -31.66456000   13.59428100
 C   -8.84649600  -32.03708800   13.91244800
 N   -9.79212100  -31.08248400   14.01796800
 C   -9.42420300  -29.75053100   14.45096700
 C   -9.48963100  -29.62417800   15.99568400
 C   -9.06340800  -30.92320700   16.61714600
 C   -7.72857100  -31.31195900   16.63885500
 C   -7.37221900  -32.59736700   16.99481200
 C  -10.01850200  -31.83893400   17.04063500
 C   -9.67513800  -33.12556400   17.40666600
 C   -8.34684200  -33.53339400   17.34006800
 N   -7.94056100  -34.85208500   17.56688300
 C   -8.72928100  -35.94437800   17.82949200
 O   -9.91629000  -35.87576600   18.11068900
 N   -8.02934500  -37.11733100   17.75935700
 C   -8.47982000  -38.41309100   18.03446900
 C   -7.62852600  -39.47033700   17.71499700
 C   -7.99148600  -40.77200600   18.00108600
 C   -9.20872100  -41.03960500   18.60788900
 C  -10.05992000  -39.99146000   18.91673200
 C   -9.70544300  -38.68475500   18.63433000
 H  -13.30209400  -42.52322000   14.26199700
 H  -13.67455200  -44.10060500   14.97826200
 H  -14.95313300  -42.90058000   14.74927500
 H  -14.37260600  -42.71312400   18.32123800
 H  -15.55690100  -43.03582300   17.05126900
 H  -14.28465900  -44.21662200   17.39044500
 H  -11.86575800  -43.64435800   16.52258100
 H  -12.13323700  -42.43789300   17.80275700
 H  -11.27066800  -41.83155200   14.92478800
 H  -10.35299900  -41.60837300   16.43467100
 H   -9.52022100  -40.06753500   15.05332900
 H   -8.56981000  -37.91972900   14.40917300
 H  -13.05205100  -38.06897400   16.42541200
 H  -12.08853100  -35.91183500   15.75229800
 H  -11.20852300  -33.97028700   14.61678800
 H   -5.66153600  -32.21100600   13.27000100
 H  -10.70010200  -31.40231100   14.32607900
 H  -10.09295800  -29.02661400   13.98508700
 H   -8.40632500  -29.58405100   14.10119400
 H  -10.51014800  -29.39300100   16.30178300
 H   -8.83938900  -28.80722300   16.30517000
 H   -6.96191700  -30.61389400   16.33774700
 H   -6.33240500  -32.89111800   16.96631900
 H  -11.05913200  -31.55034900   17.06895500
 H  -10.43256500  -33.82738300   17.71132600
 H   -6.95711900  -35.01142300   17.39453000
 H   -7.08440200  -37.07609600   17.40218200
 H   -6.67584800  -39.26557700   17.24838300
 H   -7.31721300  -41.57793400   17.75414000
 H   -9.47672200  -42.05565000   18.85189100
 H  -11.00796200  -40.18030800   19.39536300
 H  -10.36861700  -37.87210800   18.87711800
 H  -13.83250300  -41.49644300   16.34354100
73
-112.73493004789
 C   -8.40899000  -28.26838500   25.33948900
 N   -8.24477900  -29.29629100   24.30105900
 C   -7.67136100  -30.52257500   24.87563500
 C   -9.52068000  -29.54930800   23.59528000
 C   -9.28184900  -30.25417600   22.26131100
 O   -8.27600100  -29.49629200   21.59170200
 C   -7.97219500  -29.77927800   20.29906200
 C   -8.59337700  -30.76316900   19.53919700
 C   -8.20316300  -30.96204400   18.23012000
 C   -6.95109800  -29.01378100   19.73219300
 C   -6.55634700  -29.22665000   18.43274000
 C   -7.17901800  -30.20859200   17.65811700
 C   -6.79643700  -30.43643300   16.28168100
 O   -7.65103800  -31.18932200   15.50661700
 C   -5.71465200  -30.02854200   15.55250100
 C   -5.89234500  -30.55161400   14.24277300
 C   -7.10517300  -31.25881500   14.28703300
 N   -7.67741800  -31.89001100   13.26489200
 C   -6.97632000  -31.78276800   12.14693900
 N   -5.86075000  -31.11404100   11.94595300
 C   -5.29473000  -30.45120400   12.96695800
 N   -4.17821900  -29.73573100   12.72538400
 C   -3.97563400  -29.13753500   11.42213200
 C   -4.59693500  -27.71779300   11.35289900
 C   -5.85334800  -27.68488800   12.17487200
 C   -5.82348800  -27.18674400   13.47145000
 C   -6.89312600  -27.34193900   14.33109700
 C   -7.02551700  -28.28770700   11.73228200
 C   -8.09917100  -28.45691400   12.58355800
 C   -8.02871000  -28.02503200   13.90783800
 N   -9.09494800  -28.33383700   14.75822600
 C   -9.19331300  -28.09771100   16.10687700
 O   -8.42307300  -27.38424300   16.73169900
 N  -10.26355500  -28.73771000   16.66851000
 C  -10.71183900  -28.67598600   17.99264800
 C  -10.23422000  -27.75414800   18.91885900
 C  -10.76135300  -27.72516500   20.19719300
 C  -11.76260500  -28.60609800   20.57134100
 C  -12.23297700  -29.53196600   19.65326600
 C  -11.71250400  -29.56901600   18.37431200
 H   -8.76756300  -27.33975900   24.90372000
 H   -9.12576900  -28.61201700   26.08181300
 H   -7.45846300  -28.07838800   25.83099400
 H   -7.48909800  -31.26157600   24.10137200
 H   -6.72699600  -30.29731900   25.36425400
 H   -8.35750500  -30.93601400   25.61135000
 H   -9.99317700  -28.58792700   23.38997900
 H  -10.17863000  -30.14874000   24.22401300
 H  -10.21287800  -30.25399000   21.68671300
 H   -8.94424900  -31.28818700   22.38883500
 H   -9.38496700  -31.37243800   19.94231000
 H   -8.68919100  -31.71996000   17.63465400
 H   -6.48444600  -28.24333400   20.32359800
 H   -5.77874700  -28.61931200   18.00031800
 H   -4.89449800  -29.43956400   15.90495300
 H   -7.38341600  -32.29410300   11.28540500
 H   -3.82947900  -29.19768500   13.50674800
 H   -4.45909200  -29.79737400   10.70312000
 H   -2.90668900  -29.09136100   11.21353400
 H   -4.80180400  -27.47848100   10.31039900
 H   -3.88807500  -26.98827500   11.74538400
 H   -4.93833800  -26.68097800   13.82883000
 H   -6.84205300  -26.96771400   15.33922400
 H   -7.08648600  -28.66376500   10.72205300
 H   -8.98580900  -28.96471200   12.23074900
 H   -9.80981200  -28.90367700   14.32634800
 H  -10.77031300  -29.39530600   16.09147800
 H   -9.45732600  -27.06679300   18.63054600
 H  -10.38812700  -26.99347000   20.89635900
 H  -12.18997100  -28.56429000   21.56096600
 H  -13.01277300  -30.22527100   19.92972600
 H  -12.08666500  -30.28768800   17.65964700
 H   -7.59989800  -28.94461200   23.57954500
73
-112.7334432181
 C  -11.12608400  -33.26765300   -3.21524200
 N   -9.81913500  -33.87479400   -2.91818700
 C   -9.13672800  -33.13513900   -1.84689100
 C   -9.94992800  -35.31751600   -2.59563100
 C   -9.75812400  -36.17753900   -3.84130200
 O  -10.80908400  -35.88053500   -4.75607000
 C  -10.57933200  -36.01025900   -6.08582500
 C   -9.51120000  -36.70926900   -6.64024000
 C   -9.30971800  -36.68461800   -8.00524800
 C  -11.48420000  -35.36043800   -6.93288400
 C  -11.28233700  -35.34546500   -8.29538300
 C  -10.16338300  -35.97369400   -8.84903200
 C   -9.83508700  -35.82915000  -10.24948200
 O   -8.80216500  -36.58236800  -10.75603100
 C  -10.29010900  -34.94015500  -11.18123600
 C   -9.48172200  -35.11437300  -12.33733500
 C   -8.59950600  -36.16314000  -12.00889100
 N   -7.67031700  -36.68766200  -12.80423800
 C   -7.62665700  -36.09971800  -13.98962300
 N   -8.32894900  -35.06893900  -14.40807300
 C   -9.25716900  -34.51827300  -13.59990200
 N   -9.87402200  -33.44415100  -14.10818900
 C  -10.69997900  -32.48010000  -13.42383700
 C   -9.87975600  -31.43646600  -12.62517500
 C   -9.69224100  -31.82688600  -11.18754200
 C  -10.74189300  -31.65081300  -10.29074300
 C  -10.61605700  -32.01911600   -8.96771400
 C   -8.51698400  -32.40038800  -10.72205800
 C   -8.38342700  -32.78328400   -9.39935900
 C   -9.42623900  -32.57320200   -8.50585700
 N   -9.35106300  -32.92926500   -7.14696100
 C   -8.28937600  -32.95931100   -6.30654400
 O   -8.34260500  -33.64599700   -5.27543400
 N   -7.18698200  -32.21286100   -6.55717900
 C   -7.02289400  -31.13154200   -7.44003000
 C   -8.03741900  -30.20145800   -7.64219400
 C   -7.84448000  -29.15125500   -8.51975100
 C   -6.63877300  -29.00563000   -9.18478400
 C   -5.61457000  -29.90906300   -8.95459300
 C   -5.80132600  -30.96713100   -8.08459600
 H  -11.63913500  -33.86003300   -3.96756800
 H  -11.72952300  -33.23541900   -2.31042300
 H  -10.98774200  -32.25539800   -3.58554400
 H   -8.12977000  -33.51952700   -1.70905500
 H   -9.07207600  -32.08251500   -2.10973400
 H   -9.69295900  -33.23518500   -0.91727100
 H  -10.93423800  -35.49899600   -2.16308100
 H   -9.18449900  -35.60081800   -1.87411900
 H   -9.78521400  -37.23831300   -3.57074400
 H   -8.79261000  -35.94202200   -4.30069000
 H   -8.83161400  -37.27350900   -6.02305100
 H   -8.46775500  -37.20590200   -8.43456000
 H  -12.34447500  -34.87497300   -6.49945300
 H  -11.97976100  -34.83275100   -8.93638900
 H  -11.08450100  -34.24052700  -11.03948000
 H   -6.90615500  -36.50035000  -14.68981200
 H   -9.49217400  -33.16000100  -15.00006800
 H  -11.39258600  -33.00069000  -12.76349200
 H  -11.27926100  -31.96835900  -14.19288900
 H  -10.41248600  -30.48603600  -12.66299900
 H   -8.91193600  -31.30450600  -13.10984300
 H  -11.66637600  -31.21421500  -10.63781400
 H  -11.43692600  -31.87094700   -8.28391300
 H   -7.69385600  -32.56521100  -11.40307800
 H   -7.47033200  -33.25507100   -9.07052300
 H  -10.16635900  -33.42367100   -6.79791500
 H   -6.38366000  -32.45371100   -5.99092900
 H   -8.97119500  -30.29378500   -7.11209900
 H   -8.63801700  -28.43817400   -8.67926000
 H   -6.49241100  -28.18616900   -9.87109000
 H   -4.66650600  -29.79245200   -9.45749000
 H   -5.00281800  -31.67306500   -7.91132000
 H   -9.23994900  -33.79685000   -3.78196800
