29
-41.16334031515
 C   31.75868200   32.12583500   31.00505900
 C   32.89096500   31.36146700   31.22871600
 C   33.67860800   31.59319600   32.34242200
 C   33.32923700   32.59637000   33.23150100
 C   32.20023300   33.36226700   33.00728700
 C   31.40514200   33.13272100   31.89073400
 C   30.15061600   33.96676700   31.67124700
 C   30.52022300   35.43262200   31.86782400
 C   30.10953200   36.19331500   32.95370600
 C   30.50171300   37.51720900   33.06794400
 C   31.30507700   38.09648800   32.10201500
 O   29.71566600   33.76597000   30.32937200
 C   29.06495900   33.47093400   32.63748900
 C   31.33050200   36.02233000   30.90290300
 C   31.71905700   37.34360900   31.01549000
 H   31.14325300   31.95120900   30.13638000
 H   33.15603000   30.58202000   30.52993500
 H   34.56158400   30.99704400   32.51727400
 H   33.93961500   32.78482500   34.10210400
 H   31.93905800   34.14921900   33.69995000
 H   29.48473200   35.76518200   33.72126800
 H   30.17591600   38.09739800   33.91851500
 H   31.60830800   39.12841600   32.19495000
 H   28.88543600   34.24339600   30.20138100
 H   28.17936400   34.10004200   32.57645400
 H   28.79614800   32.45429000   32.35796300
 H   29.43305400   33.45948200   33.65875900
 H   31.64859100   35.42760700   30.05873100
 H   32.34812400   37.78483300   30.25695800
29
-41.16333081782
 C   31.70486900   32.11276600   30.98329900
 C   32.83720700   31.33217200   31.14215800
 C   33.68744900   31.54872400   32.21178300
 C   33.40089500   32.55255400   33.12254900
 C   32.27195200   33.33432600   32.96330800
 C   31.41412000   33.12015800   31.89078700
 C   30.16186200   33.97321500   31.74234300
 C   30.56274100   35.43295300   31.92159700
 C   31.32270300   36.01547700   30.91217800
 C   31.73493400   37.33092700   31.00576100
 C   31.39672100   38.08458600   32.11777800
 O   29.65209800   33.78283700   30.42534500
 C   29.12191300   33.49070000   32.76401400
 C   30.22778400   36.19430500   33.03262700
 C   30.64448900   37.51230500   33.12788600
 H   31.04034700   31.95050100   30.14912700
 H   33.05306400   30.55236300   30.42703200
 H   34.57057700   30.94017200   32.33594600
 H   34.06093800   32.72876800   33.95880200
 H   32.05886800   34.12178700   33.67164900
 H   31.58196700   35.41941900   30.04907200
 H   32.32338800   37.76719900   30.21256800
 H   31.71917500   39.11191300   32.19605000
 H   28.82592700   34.27676600   30.34207700
 H   28.24542200   34.13527500   32.75417100
 H   28.82028600   32.48060300   32.49444700
 H   29.54501800   33.46709500   33.76352100
 H   29.64402700   35.77095400   33.83434800
 H   30.37800300   38.09332100   33.99830700
29
-41.16332353626
 C   31.83214000   32.34016700   30.91679100
 C   32.91758300   31.49691300   31.06389300
 C   33.52668400   31.35443700   32.30003500
 C   33.04290900   32.06070500   33.38677100
 C   31.95753700   32.90760600   33.23993500
 C   31.34363000   33.05354400   32.00520200
 C   30.16333400   33.99753700   31.82139400
 C   29.07724800   33.24782400   31.05817100
 C   28.40871500   32.23076600   31.73236000
 C   27.41979200   31.49715100   31.10545200
 C   27.08721100   31.76788600   29.78826000
 O   29.67483100   34.35037500   33.11233200
 C   30.65898200   35.26125000   31.10352000
 C   28.73903100   33.51284400   29.73849200
 C   27.74950900   32.77486600   29.10928100
 H   31.35497400   32.43966600   29.95263200
 H   33.28814300   30.94704400   30.21162300
 H   34.37313700   30.69402500   32.41428600
 H   33.51091700   31.95484100   34.35416200
 H   31.57392000   33.45813400   34.08466300
 H   28.67536700   32.02761500   32.75948500
 H   26.91059300   30.71173800   31.64363600
 H   26.31663800   31.19551100   29.29415400
 H   28.96638800   34.99842100   33.00469000
 H   29.82699600   35.92325200   30.87215500
 H   31.35053700   35.78080000   31.76368500
 H   31.18524000   35.00504100   30.18925500
 H   29.24213800   34.29138100   29.18751900
 H   27.49599400   32.99069900   28.08196500
29
-41.16332307553
 C   32.21509700   32.83952400   30.87867300
 C   33.21021800   31.88783500   31.00178900
 C   33.37385200   31.20085300   32.19365100
 C   32.53545400   31.47202400   33.26019600
 C   31.54042600   32.42696400   33.13878500
 C   31.37176100   33.11731800   31.94803200
 C   30.29977100   34.18910600   31.80747600
 C   29.56203100   33.95030200   30.49511500
 C   29.69584600   34.76126600   29.37670000
 C   29.00331500   34.46703400   28.21334300
 C   28.17053600   33.36397900   28.15295200
 O   29.38833000   34.04673300   32.89340300
 C   30.97731600   35.56476700   31.89011300
 C   28.72504900   32.84128100   30.42451300
 C   28.03185500   32.55003300   29.26513600
 H   32.08661700   33.36499400   29.94344600
 H   33.85913400   31.68000600   30.16409400
 H   34.15025500   30.45662300   32.28828900
 H   32.65487500   30.94061700   34.19262700
 H   30.88211700   32.63950800   33.96654300
 H   30.33969800   35.62605200   29.39759800
 H   29.11713800   35.10558800   27.34989300
 H   27.63303400   33.13845200   27.24424900
 H   28.74583800   34.76688500   32.84966200
 H   30.25843700   36.35927100   31.70070500
 H   31.38381200   35.68706600   32.89196600
 H   31.79404800   35.63631600   31.17845900
 H   28.62283400   32.21215700   31.29698400
 H   27.38607600   31.68548200   29.22858500
29
-41.16329702313
 C   32.02937900   32.96289500   30.86069300
 C   33.17406900   32.19251100   30.78465400
 C   33.65503300   31.55421200   31.91600800
 C   32.98152100   31.69265500   33.11651000
 C   31.83197700   32.46229200   33.19224200
 C   31.34389100   33.10475300   32.06290200
 C   30.09781500   33.98265700   32.05996100
 C   30.54227600   35.43021700   31.90163600
 C   29.91901800   36.27426900   30.99494300
 C   30.31997200   37.59401600   30.87619000
 C   31.34505500   38.08384000   31.66565900
 O   29.28598500   33.64553800   30.93836900
 C   29.26257400   33.86873800   33.34338900
 C   31.57233800   35.92682100   32.69175300
 C   31.97002000   37.24565700   32.57455600
 H   31.64717400   33.46407700   29.98307800
 H   33.69283500   32.09328900   29.84294800
 H   34.55035600   30.95346000   31.86162100
 H   33.35085800   31.19885700   34.00307700
 H   31.32685400   32.55531600   34.14043300
 H   29.12267000   35.88654600   30.37909500
 H   29.82744600   38.23982500   30.16453200
 H   31.65795100   39.11301300   31.57331700
 H   28.95101800   32.74777800   31.06154800
 H   28.34725400   34.44129200   33.20812800
 H   29.00407100   32.83062700   33.54200900
 H   29.80078100   34.27865700   34.19243000
 H   32.07027000   35.27611300   33.39594400
 H   32.77211600   37.62019100   33.19290500
29
-41.16328963949
 C   32.62065600   33.26659000   31.13493100
 C   33.63714400   32.35764300   31.38027500
 C   33.47559300   31.36433100   32.32952700
 C   32.28742800   31.28094300   33.03679100
 C   31.27253200   32.18562500   32.79034300
 C   31.42761200   33.18984600   31.83982100
 C   30.25137300   34.13443900   31.62172500
 C   29.14276100   33.35064500   30.93243100
 C   27.83314200   33.41745300   31.38337700
 C   26.83198800   32.71505400   30.73457200
 C   27.12991000   31.94178000   29.62673700
 O   29.75987700   34.57693000   32.88355500
 C   30.59469100   35.35402300   30.75410000
 C   29.43715400   32.57112100   29.81992500
 C   28.43632000   31.87229800   29.17103700
 H   32.77068100   34.03040600   30.38866000
 H   34.56029500   32.42823300   30.82438400
 H   34.27027100   30.65816000   32.51734700
 H   32.14953500   30.50802300   33.77798600
 H   30.34239500   32.12844000   33.33720500
 H   27.60675000   34.01940700   32.24950000
 H   25.81657300   32.77447300   31.09721100
 H   26.34928300   31.39416500   29.12038900
 H   30.44036800   35.11793800   33.30531000
 H   29.73181100   36.01670500   30.73796000
 H   31.44552900   35.89215300   31.16683500
 H   30.81442200   35.05351500   29.73431800
 H   30.45548000   32.50546000   29.46508900
 H   28.67691100   31.26911200   28.30831500
29
-41.16168151852
 C   32.13986600   32.64503800   30.80679300
 C   33.22961300   31.80127000   30.94324800
 C   33.61837900   31.35646000   32.19425100
 C   32.90663400   31.75744800   33.31224900
 C   31.82249600   32.60448300   33.17697700
 C   31.42979400   33.06120900   31.92385600
 C   30.23308200   34.00349000   31.83878600
 C   29.79068200   34.21004800   30.39695300
 C   28.75146300   33.44471100   29.88248100
 C   28.32923100   33.60929700   28.57517800
 C   28.94601700   34.54122100   27.75913500
 O   29.19453900   33.38686400   32.59628000
 C   30.61390900   35.34503100   32.49404300
 C   30.41306600   35.13568900   29.56613900
 C   29.99185600   35.29935600   28.25836300
 H   31.84659500   32.97687100   29.82233800
 H   33.77298200   31.48806600   30.06419400
 H   34.46744800   30.69769900   32.29738700
 H   33.19643600   31.41028600   34.29274600
 H   31.25849400   32.90080000   34.04792100
 H   28.28131300   32.70756500   30.51664000
 H   27.51882500   33.00576400   28.19448800
 H   28.61821400   34.67312700   26.73900900
 H   28.47043700   34.01971400   32.69742600
 H   29.86481600   36.10192000   32.27048700
 H   30.67572700   35.20974900   33.57091200
 H   31.58186300   35.68566700   32.13932200
 H   31.23562000   35.72918200   29.93304800
 H   30.48477700   36.02259100   27.62580200
29
-41.16164493348
 C   31.43260000   31.89729000   31.14095000
 C   32.58265000   31.13125800   31.13451600
 C   33.65831000   31.48896700   31.93035400
 C   33.56858600   32.61132100   32.73359900
 C   32.41302800   33.37557400   32.74594900
 C   31.33358900   33.02568700   31.94806700
 C   30.03818600   33.82360200   31.88343000
 C   29.98564300   34.46951300   30.50006300
 C   31.00135500   35.33498300   30.10881200
 C   30.97312000   35.93213300   28.86267900
 C   29.93270700   35.66835600   27.98637300
 O   28.98929200   32.87701600   32.06381100
 C   29.92521300   34.91414300   32.95490400
 C   28.95627600   34.19784000   29.61121000
 C   28.92827200   34.79514400   28.36217600
 H   30.59057300   31.62185700   30.52421800
 H   32.64109100   30.25622500   30.50458900
 H   34.55992600   30.89513300   31.92465400
 H   34.40178100   32.89631600   33.35873500
 H   32.36808000   34.24157300   33.38659200
 H   31.82565400   35.53141100   30.77842900
 H   31.76784000   36.60272100   28.57176000
 H   29.91143200   36.13522700   27.01323100
 H   28.17124400   33.35491200   32.25575200
 H   28.96617600   35.41919900   32.84933400
 H   29.98337400   34.46680100   33.94471800
 H   30.70780400   35.65733200   32.84410500
 H   28.17997500   33.50097200   29.88977700
 H   28.11899600   34.57372800   27.68235600
29
-41.1616388284
 C   31.67064900   32.14786300   31.03002200
 C   32.75949300   31.30370100   31.17634700
 C   33.57944700   31.40293000   32.28574200
 C   33.30521800   32.35417000   33.25438500
 C   32.21521200   33.19155500   33.11242500
 C   31.38776000   33.10011400   31.99826400
 C   30.20087000   34.05165000   31.92551100
 C   29.24117700   33.64924200   33.04368700
 C   28.71797500   32.36099600   33.06663800
 C   27.84652600   31.97533200   34.06762700
 C   27.49005200   32.86931300   35.06449500
 O   30.73604600   35.35551900   32.13300900
 C   29.45659400   34.01626900   30.58585500
 C   28.89199100   34.53325000   34.05362100
 C   28.01982600   34.14675500   35.05745000
 H   31.05215400   32.05249400   30.15213700
 H   32.96703500   30.56617500   30.41527100
 H   34.42799800   30.74451700   32.39545000
 H   33.93932300   32.44141700   34.12398600
 H   31.99823300   33.93579600   33.86370600
 H   29.00514700   31.65245500   32.30375200
 H   27.44692600   30.97224000   34.07306100
 H   26.80938900   32.56727200   35.84610400
 H   30.07311200   36.00781100   31.86926100
 H   28.63586000   34.73147100   30.61522700
 H   30.13396600   34.28746000   29.77913000
 H   29.03721400   33.03396700   30.39527800
 H   29.31800500   35.52533900   34.06584600
 H   27.75759200   34.84742100   35.83619700
