48
-80.93275042229
 N   -3.55241200    1.44937500   36.27950200
 C   -3.73892500    2.49860100   37.15217800
 N   -4.98810800    2.93165400   37.27861300
 N   -2.76880100    2.98136200   37.90801100
 C   -1.57406200    2.43833400   37.66900200
 C   -1.29982900    1.37983000   36.80294000
 C   -2.34687300    0.84506100   35.98340000
 O   -2.25921800   -0.04879500   35.14643900
 N    0.05264900    1.16434900   36.84587900
 C    0.56965900    2.04780700   37.68235300
 N   -0.38468800    2.81938300   38.22104000
 C   -0.20200100    3.95410700   39.09761200
 C   -0.64364300    5.24962100   38.41323900
 C    0.19196100    5.61313400   37.17421300
 C   -0.63303500    5.65300500   35.88619400
 C   -0.93745300    4.24000900   35.32833300
 O   -2.12659100    3.97051300   35.04104700
 O    0.03150800    3.46299000   35.19361000
 C   -5.30459800    4.21461000   37.86737900
 C   -5.24844900    5.33847600   36.82820200
 C   -6.13061100    5.06000900   35.60084500
 C   -5.38718000    4.40537400   34.42234600
 C   -5.90198000    3.01341000   34.00436900
 O   -6.07961900    2.14921300   34.90530600
 O   -6.09091700    2.80560400   32.79253800
 C    0.78564500    0.24093200   36.02362000
 H   -4.33725200    1.24450900   35.66097500
 H   -5.60550100    2.64313400   36.50320400
 H    1.61553100    2.13144800   37.90699900
 H    0.85141000    3.99949700   39.37324500
 H   -0.81885900    3.79490100   39.98413500
 H   -0.58461100    6.04952600   39.14953200
 H   -1.68836700    5.13389300   38.12233300
 H    0.98793600    4.88198600   37.01232600
 H    0.65712600    6.58983800   37.31376600
 H   -0.06736300    6.15952200   35.09863600
 H   -1.57976600    6.17917400   36.02310300
 H   -4.58998900    4.40404100   38.66800300
 H   -6.31427700    4.13894100   38.27443700
 H   -4.21538100    5.46545600   36.49769900
 H   -5.57149400    6.26089300   37.31063500
 H   -6.55303100    6.00059100   35.24606100
 H   -6.96754400    4.41781100   35.88900800
 H   -4.32602300    4.26021100   34.65205800
 H   -5.43549500    5.02820000   33.52633900
 H    1.61323500   -0.17956000   36.58920800
 H    0.10705100   -0.53890400   35.68505600
 H    1.16065300    0.77458100   35.14874300
48
-80.93274592558
 N  -13.30731600    3.95973000   47.03583300
 C  -12.26400500    4.64303200   47.62013900
 N  -11.45153100    3.91914700   48.38163300
 N  -12.12913200    5.95430800   47.53191300
 C  -13.02938200    6.54026900   46.74092700
 C  -14.11222600    5.92337000   46.11421000
 C  -14.26793900    4.50161200   46.20540100
 O  -15.13271700    3.80842300   45.67729400
 N  -14.75642700    6.88657600   45.38306800
 C  -14.09706200    8.02010400   45.55024900
 N  -13.06113100    7.85813400   46.38492200
 C  -12.05782100    8.83807000   46.73505200
 C  -10.67962700    8.41890100   46.21883900
 C  -10.58693300    8.33888900   44.68580000
 C  -10.27377300    6.93032200   44.17709400
 C  -11.51311400    6.00069800   44.18965900
 O  -11.38933600    4.87222300   44.71949400
 O  -12.55575600    6.43820000   43.65857100
 C  -10.14313900    4.39097100   48.77931400
 C   -9.08451400    4.07287400   47.71893800
 C   -9.04664500    2.58306500   47.34369300
 C   -9.89626200    2.21795200   46.11276100
 C  -11.03485500    1.21059700   46.37027100
 O  -11.80829200    1.42351700   47.34324700
 O  -11.14818900    0.25095400   45.58706900
 C  -15.86590700    6.67154300   44.49470100
 H  -13.23923600    2.94239000   47.06280500
 H  -11.51523900    2.90408600   48.20439600
 H  -14.36028100    8.94940400   45.08282300
 H  -12.02113000    8.90577200   47.82402800
 H  -12.35913500    9.79411100   46.30728000
 H  -10.44644700    7.44263300   46.64543400
 H   -9.95302600    9.13553900   46.59836700
 H   -9.80975300    9.01423700   44.32565300
 H  -11.53087400    8.63532300   44.22159800
 H   -9.48067200    6.45266700   44.75568000
 H   -9.95704900    6.97493400   43.13084900
 H   -9.89205900    3.88609300   49.71359800
 H  -10.20694500    5.46702200   48.93954300
 H   -8.11360800    4.37771300   48.10943700
 H   -9.29384100    4.65710300   46.82041000
 H   -9.38276600    1.98284500   48.19381200
 H   -8.01618300    2.29524800   47.13311200
 H   -9.28190800    1.78584300   45.31967000
 H  -10.38616100    3.10157800   45.68947800
 H  -16.55731700    7.50809200   44.55915000
 H  -15.48578300    6.57445400   43.47661100
 H  -16.35557300    5.73970100   44.76903500
