26
-35.79974656731
 O   44.73423400   35.98757200    5.77644300
 O   42.82849900   34.99672500   10.68341300
 C   43.20575600   34.72827000    7.13887400
 C   43.56371500   36.09943000    6.56630200
 O   45.92576500   35.90009300    9.46225600
 C   43.37716500   33.30412500    9.13059200
 C   42.26935700   33.88166300   10.01384700
 C   45.42292400   34.10919400    8.01380500
 C   46.29629000   34.56108600    9.18317300
 N   44.00265300   34.38406700    8.33554900
 H   44.93362800   36.83241800    5.35718300
 H   42.20537700   35.35263100   11.32606600
 H   43.38042900   33.96887000    6.37480300
 H   42.15233300   34.73363200    7.41310100
 H   42.72752200   36.44686200    5.94923700
 H   43.72183300   36.81620800    7.38262200
 H   46.48324800   36.26461200   10.15824300
 H   42.98952700   32.53112000    8.46885600
 H   44.13978500   32.87751200    9.78172300
 H   41.40113100   34.19154000    9.41974800
 H   41.94462100   33.11224600   10.72166400
 H   45.56189700   33.05168800    7.79760400
 H   45.68661400   34.69899200    7.13502400
 H   46.13517200   33.93462100   10.06941100
 H   47.34890400   34.49007800    8.89244200
 H   44.03255400   35.21086600    8.96492100
26
-35.79969478177
 O   44.20042300   32.29107100    6.18457900
 O   46.22547300   34.69659500    8.26834800
 C   42.62190800   33.53843600    7.52369300
 C   43.34377300   32.21093900    7.31066100
 O   41.63428800   34.23557200   10.24194100
 C   44.33744900   35.18422800    6.85143900
 C   45.66483700   35.69058900    7.43360700
 C   42.79489900   35.67995300    8.70310400
 C   42.55723000   35.30622500   10.16511600
 N   43.52842200   34.62655400    7.96216400
 H   44.46320200   31.40798900    5.90224700
 H   46.68284000   34.03780000    7.73023000
 H   41.87098600   33.39209600    8.30017800
 H   42.13829200   33.84762200    6.59662700
 H   43.92367700   31.95039300    8.20640800
 H   42.58066900   31.44108200    7.15963400
 H   41.37059300   34.08783700   11.15716500
 H   44.53613000   34.37663900    6.14551000
 H   43.79286200   35.98163800    6.35016500
 H   46.34157900   35.97720300    6.62635400
 H   45.51289800   36.56168700    8.07507400
 H   43.37885900   36.59876200    8.68507500
 H   41.83854500   35.84938500    8.20751100
 H   43.50849000   35.02353700   10.63664900
 H   42.16474400   36.18957400   10.68058500
 H   44.23703000   34.22027800    8.60198500
26
-35.79956028784
 O   42.19131400   35.46033700    6.82673600
 O   43.43913700   31.71181300    5.97302200
 C   44.34019300   34.49838800    6.78781500
 C   43.54205900   35.77776600    6.54007800
 O   42.72111500   35.18470500   10.18496400
 C   44.09062200   32.50392900    8.21392300
 C   43.04644100   31.80998700    7.32534700
 C   44.79834900   34.63126400    9.20891600
 C   43.99192600   34.65201200   10.50876400
 N   44.01326300   33.97871400    8.13673300
 H   41.61711300   36.20251300    6.61018600
 H   44.07485100   30.99355800    5.86049300
 H   45.41123000   34.67120100    6.69954300
 H   44.02348000   33.75659400    6.05303100
 H   43.88043000   36.59655200    7.18746400
 H   43.66892300   36.08274100    5.49691100
 H   42.19435600   35.31284600   10.98125400
 H   45.09681400   32.20103600    7.91746100
 H   43.91579800   32.20527400    9.24633100
 H   42.83171900   30.81854100    7.73411100
 H   42.11783400   32.38706100    7.32219200
 H   45.74658800   34.11336000    9.34493000
 H   44.98663200   35.66274700    8.91283900
 H   43.88621700   33.64574800   10.93211300
 H   44.51405100   35.27867400   11.23889800
 H   43.02821900   34.27131800    8.29377000
26
-35.79931329983
 O   42.42361700   35.14769800   10.61505100
 O   44.23122000   32.30941400    9.76826200
 C   42.62148300   35.54863200    8.29520300
 C   41.64730700   35.24704500    9.43409900
 O   44.90747000   37.43589800    8.69275600
 C   43.44978000   33.29929400    7.70248100
 C   44.29843700   32.19953000    8.36255700
 C   45.00710300   35.19384000    7.82379100
 C   45.61592700   36.21306000    8.78562500
 N   43.75611300   34.59745400    8.34201300
 H   41.86484800   35.20960500   11.39679600
 H   43.44316800   31.86363000   10.10253300
 H   43.02476500   36.55132100    8.44289700
 H   42.12858200   35.49346400    7.32607800
 H   40.91845500   36.05950800    9.49583300
 H   41.10189000   34.30955500    9.26373700
 H   45.33137800   38.10720800    9.23941200
 H   42.39332400   33.08093800    7.85876700
 H   43.64943400   33.35349600    6.63340900
 H   43.96949800   31.21902400    8.01108400
 H   45.35413000   32.31143700    8.10629300
 H   45.73388000   34.39855700    7.66913200
 H   44.79148800   35.68278200    6.87248100
 H   45.57720000   35.82569100    9.81239400
 H   46.66502000   36.36393700    8.50788800
 H   43.89348000   34.38183100    9.35162800
26
-35.79927351846
 O   42.46946400   33.14075600    9.99142900
 O   46.48713200   35.87851900    9.02652700
 C   42.87771300   33.64560400    7.71606800
 C   42.60587200   32.52438200    8.72131500
 O   41.39730400   36.24155200    7.67962100
 C   45.28409500   34.02398700    8.07124400
 C   46.25254800   34.48873400    9.15708100
 C   43.78562000   35.93845800    7.76279300
 C   42.57667600   36.67226900    8.33740200
 N   43.91333000   34.55142300    8.26779500
 H   42.09410400   32.52264600   10.62764200
 H   47.19245100   36.15507300    9.62265100
 H   41.96653000   34.22966500    7.58101100
 H   43.19855000   33.24756300    6.75538000
 H   41.69222500   32.00070600    8.42873600
 H   43.42806700   31.79780300    8.74810100
 H   40.64968400   36.78774700    7.94743200
 H   45.25123200   32.93587300    8.09538100
 H   45.64464000   34.35289200    7.09613900
 H   45.83723800   34.26428400   10.14886800
 H   47.18727100   33.92954700    9.03747100
 H   44.69020300   36.47790100    8.04378900
 H   43.69829900   35.90444800    6.67615600
 H   42.49695900   36.48479800    9.41648700
 H   42.72502600   37.74590700    8.18056100
 H   43.71252800   34.56426100    9.28246900
26
-35.79832366229
 O   40.99447700   35.13843300    8.88352800
 O   42.64704600   33.01094700    6.99846000
 C   43.15074900   36.12702900    8.95677100
 C   41.89823700   35.78735800    9.76178600
 O   43.83175600   33.41578300   10.92646700
 C   44.12238100   34.83302200    7.08807900
 C   42.86312300   34.28782100    6.41957900
 C   45.13593100   34.69328500    9.32471900
 C   44.81760500   34.41767200   10.80172200
 N   43.89273300   34.90278400    8.55097800
 H   40.18350200   34.91506900    9.35341600
 H   41.85375800   32.60887700    6.62920300
 H   43.80514300   36.77666000    9.53485000
 H   42.82863200   36.65691200    8.06041300
 H   42.13844400   35.13228900   10.60615900
 H   41.46487000   36.71853500   10.14519300
 H   44.22653700   32.54086800   10.82285600
 H   44.39643800   35.81198900    6.70012800
 H   44.93111000   34.12818900    6.89310700
 H   42.00111700   34.93622600    6.61069800
 H   43.02632100   34.21159500    5.33973900
 H   45.64991200   33.82645400    8.90706300
 H   45.77756400   35.56886100    9.23104000
 H   45.74056000   34.14552600   11.32067300
 H   44.40822900   35.30490100   11.28828000
 H   43.27711400   34.09356600    8.75787200
26
-35.79831398196
 O   41.70307300   35.51956900    9.90146100
 O   44.79746300   32.85680500   10.27831700
 C   42.28682300   34.83802800    7.73359600
 C   41.80499400   36.01568200    8.57675600
 O   44.75631500   36.68086000    9.62220200
 C   43.79148200   32.92031300    8.06924400
 C   44.94504100   32.41244900    8.94702300
 C   44.73295900   35.19104100    7.77440600
 C   45.56514800   35.74671600    8.92809500
 N   43.59062500   34.37275700    8.26370500
 H   41.40413900   36.21627600   10.49516000
 H   44.16147400   32.30387700   10.74978500
 H   42.37794300   35.10284600    6.68211500
 H   41.55726800   34.03499700    7.84178800
 H   42.51877500   36.84603000    8.54193800
 H   40.83382000   36.35817000    8.20526800
 H   45.24715900   37.05228100   10.36348600
 H   42.87328400   32.40990100    8.36258700
 H   43.99356500   32.71518200    7.01844100
 H   44.98820800   31.32182400    8.88542500
 H   45.90321400   32.80613800    8.60271700
 H   45.35775400   34.59033100    7.11613800
 H   44.34298200   36.04040400    7.21369100
 H   45.88251600   34.94669000    9.60536400
 H   46.45426000   36.23685100    8.51394800
 H   43.52702500   34.52457200    9.28852500
26
-35.79789888603
 O   43.13152200   36.73804500    6.18231900
 O   43.85310700   33.47582500   10.95300500
 C   42.43482300   34.76535800    7.35416500
 C   42.22655100   36.26896700    7.16915300
 O   44.31266300   36.65832300    9.63730500
 C   43.52198900   32.98009600    8.60162000
 C   44.30689800   32.67260000    9.88479900
 C   44.80960100   35.01963800    7.99760600
 C   45.35776000   35.81085500    9.18753200
 N   43.48517300   34.43747600    8.34706400
 H   42.97491800   37.67334600    6.00961300
 H   43.07173100   33.08286200   11.36156500
 H   42.72053900   34.33628400    6.39195200
 H   41.49809100   34.31912900    7.68584200
 H   41.19614000   36.44160700    6.84048600
 H   42.39186500   36.79403900    8.11753300
 H   44.62147200   37.20162900   10.37057000
 H   42.49541800   32.62959100    8.71800200
 H   43.97401400   32.47147200    7.75093700
 H   44.22130500   31.60673800   10.11074600
 H   45.36642200   32.90276300    9.75743300
 H   45.50542800   34.23519900    7.70818900
 H   44.67168000   35.69939400    7.15622600
 H   45.66439400   35.14541500   10.00210600
 H   46.22582600   36.39155700    8.85946700
 H   43.23562700   34.89836600    9.24129100
26
-35.79772395483
 O   44.21214900   32.84887800    5.58443700
 O   43.30039600   35.99381900   10.40055000
 C   44.77648400   34.53905400    7.20136000
 C   44.24283200   34.24968100    5.79776800
 O   44.96524100   32.89489800   10.23126500
 C   42.61924600   35.19592600    8.22424600
 C   42.18997500   35.53494700    9.66073200
 C   43.42168500   32.87663400    8.43539100
 C   44.55326900   32.11235400    9.12459700
 N   43.79804100   34.30161700    8.28774500
 H   44.07829000   32.65704800    4.64953400
 H   43.45633600   36.93142300   10.22862200
 H   45.09497400   35.57979100    7.24978000
 H   45.64217200   33.89900200    7.37062300
 H   43.24178000   34.67426900    5.65867700
 H   44.92218700   34.72780700    5.08380600
 H   45.58823600   32.40591200   10.77899400
 H   42.90569900   36.11345600    7.70910100
 H   41.80496000   34.71758600    7.68324300
 H   41.37623700   36.26335000    9.64459100
 H   41.83822400   34.64212400   10.18228000
 H   42.53483800   32.82530800    9.06518300
 H   43.21657800   32.44399000    7.45784200
 H   44.17403600   31.13639200    9.44276200
 H   45.39092100   31.94562100    8.43686900
 H   44.26991100   34.53866200    9.18602700
26
-35.79742184393
 O   41.95036500   36.65480800    8.71624000
 O   45.75579800   33.95366600   10.29499000
 C   43.36960800   35.11295400    7.55623200
 C   41.96264800   35.69457700    7.67444900
 O   44.00841400   32.59255200    6.05972000
 C   43.43673300   34.52742900    9.96939700
 C   44.47022900   33.83897800   10.87404400
 C   43.08005800   32.76821100    8.26847800
 C   43.95509000   31.95045800    7.32022000
 N   43.68892300   34.08435300    8.57829900
 H   41.11213500   37.13049400    8.71958000
 H   46.16471400   34.79109200   10.54792900
 H   44.07186000   35.94035900    7.66358500
 H   43.49835600   34.65164100    6.57734800
 H   41.71766300   36.16833500    6.71755800
 H   41.21950300   34.91321100    7.87112400
 H   44.46049400   32.03121200    5.41975700
 H   43.55807700   35.61014100   10.00974700
 H   42.42113200   34.28504100   10.27392100
 H   44.43151100   34.26244400   11.87870300
 H   44.27302700   32.76698700   10.94874000
 H   42.95840900   32.20123300    9.18970300
 H   42.10387000   32.92726400    7.81171400
 H   44.96553700   31.84957100    7.73988100
 H   43.51627900   30.95093100    7.22638000
 H   44.71855400   33.95124700    8.55933500
26
-35.79740039066
 O   42.41130400   36.51485900    8.19673100
 O   46.60510700   32.56641200    8.15450200
 C   42.45575600   34.19220800    8.66531700
 C   41.70120600   35.31407800    7.95197900
 O   45.51850800   35.78456200    6.83422700
 C   44.67307300   33.41532800    9.29591800
 C   46.18526700   33.53503100    9.10215900
 C   44.17761300   33.83017400    6.91052300
 C   44.54539500   35.06935100    6.09195200
 N   43.89414000   34.21317700    8.31994600
 H   41.85187800   37.27939600    8.02468400
 H   47.56454400   32.58811300    8.06426400
 H   42.03172200   33.22111100    8.41264800
 H   42.36578800   34.35706100    9.73961500
 H   41.63092700   35.12647500    6.87340600
 H   40.68675800   35.35841500    8.35890900
 H   45.82696300   36.54478500    6.32917900
 H   44.41967000   33.75957800   10.29768900
 H   44.39269600   32.36571000    9.18975200
 H   46.44289600   34.54331600    8.75649000
 H   46.67651400   33.35165800   10.06371800
 H   45.02636900   33.14580600    6.90925600
 H   43.31643600   33.32809100    6.47473600
 H   44.94110700   34.74839300    5.12294900
 H   43.67107600   35.70706300    5.92056100
 H   44.20295000   35.19842200    8.39685800
26
-35.79719906417
 O   42.88900700   32.73573300   10.45596400
 O   42.69197500   32.74095200    6.84640100
 C   44.46230200   34.43225200    9.77569200
 C   44.26982000   33.02252900   10.33486200
 O   43.40756800   37.52601600    7.90721400
 C   42.54396300   34.70432000    8.23755300
 C   42.10999900   34.02814300    6.93171900
 C   44.77852600   35.56680200    7.60583900
 C   44.69133900   36.98622000    8.16709300
 N   44.01569200   34.54656800    8.36764800
 H   42.75511200   31.98143500   11.04031500
 H   42.18581100   32.12070800    7.38729600
 H   45.52375700   34.67238700    9.82980400
 H   43.89467900   35.13783200   10.38258300
 H   44.74983100   32.28657600    9.67501500
 H   44.76062900   32.98134300   11.31239100
 H   43.39590500   38.46785500    8.11193400
 H   42.07777800   34.19538800    9.08118600
 H   42.27886000   35.75920900    8.23839900
 H   41.02058400   33.98897300    6.87563400
 H   42.47326300   34.57846000    6.06127000
 H   45.82603800   35.26641300    7.58642700
 H   44.39600400   35.58537100    6.58518800
 H   44.89778700   37.00171900    9.24289600
 H   45.46091700   37.57971800    7.66038000
 H   44.18900500   33.63488800    7.90110300
26
-35.797185426
 O   42.77329600   32.83311300    6.75667400
 O   42.47315600   36.16678600    6.87474200
 C   43.31026800   33.33325000    9.00024100
 C   43.31163100   32.24401900    7.92554500
 O   45.99422500   36.16828900   10.16447000
 C   43.36411100   35.80642700    9.02538900
 C   42.10366200   36.16911200    8.24244600
 C   45.41840200   34.53015500    8.51287600
 C   46.00288800   34.77719100    9.90429200
 N   43.93816100   34.56137100    8.46332800
 H   42.69333100   32.17975100    6.05336400
 H   41.72836500   36.43328400    6.32495000
 H   43.83378400   32.99448200    9.89205200
 H   42.27531400   33.56177900    9.25240200
 H   44.32647000   31.87477800    7.73432300
 H   42.69767400   31.40474900    8.26803900
 H   46.46970700   36.35665100   10.98151900
 H   43.15286100   35.68555700   10.08578000
 H   44.09792700   36.60261800    8.90132500
 H   41.30216600   35.44082700    8.41672100
 H   41.75518300   37.15649300    8.56066300
 H   45.75488400   33.56164500    8.14726200
 H   45.79922700   35.31156200    7.85353900
 H   45.43607700   34.24354000   10.67633500
 H   47.03071500   34.39692900    9.90730700
 H   43.65836800   34.58603200    7.46150400
26
-35.79706617925
 O   43.16158700   32.00861200    8.65855800
 O   42.66041000   33.62247400    5.27957800
 C   42.37599900   34.20759900    8.25891000
 C   42.20034400   32.94713600    9.10994100
 O   44.91096000   34.13027400   10.63905100
 C   44.26064600   34.76734400    6.75740600
 C   43.95443700   33.56843100    5.84450400
 C   44.22272000   35.69948500    9.00326700
 C   44.18255800   35.33471100   10.48697800
 N   43.81886400   34.55503200    8.15683400
 H   43.04794300   31.16907100    9.11709500
 H   42.64201500   34.25027400    4.54607300
 H   41.81478600   35.03744600    8.68343400
 H   42.00004800   33.99499900    7.25799000
 H   42.35956200   33.15623500   10.17356100
 H   41.18169700   32.56930800    8.97634800
 H   45.14480300   33.99094300   11.56258500
 H   43.76081000   35.66022300    6.37655100
 H   45.33709800   34.93521800    6.76415100
 H   44.71177000   33.51110400    5.05832000
 H   43.98732000   32.64174000    6.42307100
 H   45.25137700   35.95770800    8.74861900
 H   43.57579000   36.55252900    8.80114900
 H   44.63781200   36.15183400   11.05486900
 H   43.15137800   35.20531400   10.83820100
 H   44.31437700   33.72158000    8.52265800
