32
-95.73022187112
 F   -9.14721100   32.77215200   -4.84698800
 C   -9.98600700   31.82697100   -5.32855600
 F   -9.35780300   31.27974900   -6.37339100
 F  -11.02527700   32.52170900   -5.84496200
 O  -10.31006400   30.89373200   -4.48571300
 C  -10.99058200   31.20772000   -3.27218100
 C  -11.36258900   32.48419300   -2.89814400
 C  -12.02298300   32.67207600   -1.69492500
 C  -11.26701700   30.11564300   -2.46349200
 C  -11.92365800   30.30892800   -1.26751300
 C  -12.31153900   31.59115800   -0.86741800
 N  -12.97159600   31.71546800    0.35172600
 C  -13.46345800   32.85169800    0.94364400
 O  -13.38957200   33.96938800    0.45831700
 N  -14.05290500   32.58304500    2.15097300
 C  -14.66888900   33.47980300    3.02110200
 C  -14.74149900   34.85177300    2.84588000
 C  -15.38748700   35.62331200    3.80590400
 C  -15.93748900   34.99662700    4.90418400
 N  -15.87895700   33.68125200    5.08948400
 C  -15.26656700   32.94655400    4.18854700
 O  -15.22360400   31.59766200    4.32724700
 C  -15.53427300   31.02818800    5.56383700
 C  -14.87359700   31.50055500    6.68828200
 C  -15.09565600   30.92683800    7.92435000
 C  -15.97886300   29.86880400    8.02364500
 C  -16.62440700   29.39520900    6.89526800
 C  -16.42829100   29.95306400    5.63547300
 C  -17.14952000   29.42295100    4.40204000
 C  -16.11643400   28.94050300    3.37398200
 C  -18.07069600   28.24103100    4.72338700
 C  -18.01785100   30.53866800    3.80198400
32
-95.73021044084
 F  -20.31009800   27.19925400    9.73881000
 C  -19.14873400   26.54548600    9.96925300
 F  -19.48694800   25.27603600   10.21379500
 F  -18.70337300   27.04234900   11.14579100
 O  -18.29159500   26.58155500    8.99448400
 C  -17.76034900   27.82235600    8.53353800
 C  -16.85182200   27.71226100    7.49146200
 C  -16.27783300   28.85200300    6.97161300
 C  -18.09862500   29.05486100    9.05695900
 C  -17.51794900   30.19718800    8.53032600
 C  -16.60339900   30.11106800    7.48514700
 N  -15.98517700   31.21992000    6.91504800
 C  -16.13655400   32.54408500    7.24174700
 O  -16.87940400   32.95785100    8.11765600
 N  -15.35205600   33.35349600    6.46285600
 C  -15.24671300   34.74171800    6.50339100
 C  -15.91204600   35.57530100    7.38679200
 C  -15.70284600   36.94807500    7.30922700
 C  -14.83867500   37.43719500    6.35252100
 N  -14.19205300   36.65343300    5.49459800
 C  -14.38168100   35.35511400    5.56479900
 O  -13.77009700   34.52761600    4.68037700
 C  -12.70498700   35.00613500    3.91497700
 C  -11.65715700   35.63804400    4.56834400
 C  -10.55203400   36.07249500    3.86392800
 C  -10.50023200   35.86013900    2.49952200
 C  -11.54251400   35.21543500    1.85751400
 C  -12.67257700   34.76821700    2.53549000
 C  -13.81058500   34.05534300    1.81448400
 C  -15.10880600   34.85761400    1.98718400
 C  -13.55339800   33.91027700    0.31062800
 C  -13.97536200   32.64438800    2.39683100
32
-95.72977607643
 F   -8.56221700   40.86564500    7.42846600
 C   -9.18423100   41.47118600    6.39088000
 F   -8.58000600   42.65299300    6.24140100
 F  -10.42568200   41.74625300    6.85265200
 O   -9.14426100   40.81981700    5.26803300
 C   -9.72762300   39.52303900    5.15558300
 C  -10.35905500   38.86388500    6.19356400
 C  -10.88548600   37.60552300    5.96188200
 C   -9.61908400   38.94326200    3.90150500
 C  -10.14618900   37.68810400    3.67615200
 C  -10.78730200   37.00259500    4.70813800
 N  -11.33933400   35.73392500    4.55743300
 C  -11.38161500   34.94951300    3.43162000
 O  -10.92906900   35.27490500    2.34620000
 N  -11.99952500   33.75019800    3.67117900
 C  -12.23063900   32.70978100    2.77442200
 C  -11.83418000   32.68613800    1.44778900
 C  -12.13658500   31.57252000    0.67136000
 C  -12.82424300   30.52564100    1.24792900
 N  -13.21364800   30.52997200    2.51950400
 C  -12.92695900   31.57661000    3.26034500
 O  -13.34088500   31.63351400    4.55138200
 C  -13.80241200   30.47453400    5.17840000
 C  -13.00801600   29.33855600    5.13003700
 C  -13.39202200   28.18646200    5.78682400
 C  -14.57449600   28.18434400    6.50188400
 C  -15.35293600   29.32664300    6.55905700
 C  -14.99835300   30.50334300    5.90608200
 C  -15.86290000   31.75615800    5.98493900
 C  -16.31364700   32.15881100    4.57286100
 C  -17.12429700   31.54710500    6.82990900
 C  -15.05403500   32.89039800    6.63002200
32
-95.72967572332
 F  -13.78252900   29.94982000    9.20327200
 C  -13.21376900   28.73286800    9.33939800
 F  -12.32384400   28.86022800   10.32836900
 F  -12.50128300   28.55387600    8.20846000
 O  -14.04148200   27.76929000    9.62763500
 C  -14.92920700   27.26036500    8.64102100
 C  -15.44201600   25.99897200    8.90827200
 C  -16.32745000   25.42587400    8.02029900
 C  -15.28135400   27.94792100    7.49545100
 C  -16.17266400   27.36629200    6.60768100
 C  -16.71338500   26.10803600    6.86390400
 N  -17.58710100   25.47541500    5.97543600
 C  -18.57733100   25.99733300    5.18972800
 O  -19.10768300   25.31157300    4.32741900
 N  -18.93277900   27.28383600    5.48872300
 C  -19.91733400   28.05485300    4.88592800
 C  -20.57425200   27.72594900    3.70567300
 C  -21.53623500   28.59218700    3.20889900
 C  -21.81289900   29.75623300    3.90254800
 N  -21.18731300   30.08938800    5.02458600
 C  -20.27233400   29.27457200    5.50010800
 O  -19.70124500   29.61145400    6.70329500
 C  -18.45592000   30.21866100    6.71406200
 C  -17.86126900   30.62427100    5.52739300
 C  -16.62325300   31.23978900    5.53296000
 C  -15.98451900   31.45468700    6.73743000
 C  -16.58138400   31.04450300    7.91868300
 C  -17.81522000   30.40702100    7.94968000
 C  -18.45287100   29.95462800    9.25713200
 C  -18.75010700   28.44779800    9.20844300
 C  -17.54241800   30.20318000   10.46472300
 C  -19.75509900   30.73883300    9.47181100
32
-95.72956984894
 F  -15.24884500   30.47178700    3.57687400
 C  -16.10276100   31.26993100    4.25626200
 F  -17.29292800   31.11724900    3.67122400
 F  -15.70206500   32.52720000    3.96830800
 O  -16.21082200   31.00578900    5.52552200
 C  -15.09186700   31.13581400    6.39456000
 C  -15.36651000   30.88696300    7.73062100
 C  -14.36314000   31.00745600    8.66965500
 C  -13.81722200   31.47397900    5.97924600
 C  -12.81314800   31.58568200    6.92578500
 C  -13.07412400   31.37538600    8.27785600
 N  -12.02411600   31.48014800    9.19202700
 C  -12.05295700   31.86412300   10.50715100
 O  -11.10446000   31.63078600   11.24421300
 N  -13.17087800   32.55452900   10.87735300
 C  -13.48340200   33.02536800   12.14998700
 C  -12.96201300   32.50797800   13.32346200
 C  -13.39789300   33.01914200   14.54082600
 C  -14.34941500   34.01722000   14.53578800
 N  -14.85391700   34.53200600   13.41869700
 C  -14.42961100   34.07326600   12.26205800
 O  -14.91768400   34.55761600   11.09420000
 C  -15.72992100   35.68779500   11.05233100
 C  -15.44244100   36.77830100   11.85996300
 C  -16.21865400   37.91950900   11.80041600
 C  -17.28147600   37.96776200   10.91975200
 C  -17.54121200   36.89020100   10.09130900
 C  -16.77818500   35.72805300   10.12055600
 C  -17.04165600   34.57513800    9.15888600
 C  -17.30014000   33.27870800    9.93947600
 C  -18.26462400   34.81807400    8.26684700
 C  -15.82250900   34.42622000    8.23620600
32
-95.72894087329
 F  -10.37165000   37.48136000   12.44134300
 C  -10.48143300   36.20023700   12.03093700
 F  -10.82039600   35.49189100   13.11001700
 F   -9.21939000   35.82690800   11.72179800
 O  -11.36089200   35.99970600   11.09183100
 C  -11.27674900   36.69756400    9.85765400
 C  -10.22828600   37.52716200    9.50240200
 C  -10.27171600   38.17350700    8.27855900
 C  -12.34164000   36.48058900    8.99701800
 C  -12.38145800   37.13269700    7.78164900
 C  -11.35426900   38.00627900    7.41814400
 N  -11.35867100   38.68035100    6.19306700
 C  -12.40493700   39.25038100    5.52130900
 O  -12.26569400   39.63887700    4.37041900
 N  -13.55294900   39.38062000    6.25388400
 C  -14.76296100   39.92964900    5.85317200
 C  -15.09240700   40.25865200    4.54323700
 C  -16.34404200   40.79407500    4.28034400
 C  -17.22565200   40.98470200    5.32882400
 N  -16.92927900   40.66808200    6.58305400
 C  -15.74556800   40.15782300    6.84013300
 O  -15.44048000   39.91727400    8.15786200
 C  -15.57811800   38.63393500    8.66310200
 C  -16.15483900   37.63415300    7.89242300
 C  -16.30200800   36.35393400    8.39286300
 C  -15.86736800   36.07800700    9.67345000
 C  -15.28601900   37.07829400   10.43598400
 C  -15.11511900   38.37349800    9.96327700
 C  -14.48476600   39.46417400   10.81995600
 C  -15.53535900   40.55200600   11.08473500
 C  -13.99812900   38.93365800   12.17306200
 C  -13.27113800   40.07347200   10.10155100
32
-95.72890396882
 F  -21.76798500   34.04579000    6.50435100
 C  -22.96319700   33.91978600    7.11644500
 F  -23.73133500   33.20221500    6.29424900
 F  -23.48573100   35.16695500    7.11666300
 O  -22.92096000   33.33993700    8.28211200
 C  -22.05872900   33.82890400    9.30036400
 C  -21.92315900   32.99324400   10.39739300
 C  -21.08683300   33.35694000   11.43488100
 C  -21.40523600   35.04610700    9.24392500
 C  -20.57457700   35.40713700   10.28942500
 C  -20.38345100   34.56030200   11.37815800
 N  -19.53400700   34.97090300   12.40953200
 C  -18.57104300   34.27441100   13.08402200
 O  -17.90364300   34.82865400   13.94589300
 N  -18.40502900   32.96482100   12.71464700
 C  -17.30423400   32.19459900   13.11231900
 C  -16.84423900   32.20340500   14.42234700
 C  -15.77083400   31.40036400   14.77678600
 C  -15.19726600   30.60374100   13.80413200
 N  -15.61662400   30.58890900   12.54683600
 C  -16.62719300   31.36092000   12.19604100
 O  -17.01920600   31.19965400   10.90068400
 C  -17.36487500   32.29208900   10.12335100
 C  -16.75326500   33.52096100   10.34488500
 C  -17.07884200   34.61756600    9.57073600
 C  -18.01443300   34.47623000    8.56435000
 C  -18.59773100   33.24318700    8.32711300
 C  -18.29574400   32.11808300    9.08553300
 C  -18.89642800   30.75204200    8.78062600
 C  -19.59661700   30.17352200   10.01886700
 C  -19.93064200   30.81065400    7.65109200
 C  -17.75982800   29.81697900    8.34159700
32
-95.72849628118
 F  -24.42837300   41.48309100    7.55395800
 C  -23.08834000   41.64661100    7.49138900
 F  -22.82514400   42.79504100    8.11838400
 F  -22.82733700   41.86538300    6.18573700
 O  -22.39303700   40.69026900    8.03833900
 C  -22.51032600   39.35074500    7.58055200
 C  -21.77826000   38.42204600    8.30663400
 C  -21.80720600   37.09485400    7.93583100
 C  -23.28504700   38.96489000    6.50370200
 C  -23.30031400   37.62950600    6.12957800
 C  -22.55177700   36.68689600    6.82790800
 N  -22.56920500   35.33210000    6.48313100
 C  -22.47064100   34.74676100    5.25319400
 O  -22.52905000   33.53097900    5.13833200
 N  -22.27990200   35.60173300    4.19779500
 C  -21.90983400   35.15582700    2.92148900
 C  -22.57256500   34.10928900    2.29634800
 C  -22.19617600   33.73209000    1.01586700
 C  -21.17200500   34.42671800    0.40063400
 N  -20.51502800   35.41624300    0.98998500
 C  -20.85232800   35.76845600    2.21541700
 O  -20.15506600   36.83180500    2.70600200
 C  -19.70507100   36.81746100    4.01793900
 C  -19.36341800   35.60969100    4.61584900
 C  -18.91472200   35.57269700    5.92154700
 C  -18.80026300   36.75499600    6.62666800
 C  -19.10903400   37.95850900    6.01613000
 C  -19.56106500   38.03440400    4.70382200
 C  -19.84426600   39.36743700    4.02376800
 C  -21.28780200   39.41482900    3.50292500
 C  -19.65670400   40.55507200    4.97380400
 C  -18.86264500   39.53069000    2.85416200
32
-95.72830607042
 F  -11.50417300   39.76587600    7.70291800
 C  -12.37417400   40.27806600    8.59844200
 F  -12.31030000   41.60607500    8.46119700
 F  -11.82011600   40.01134800    9.80536100
 O  -13.60609800   39.88829700    8.45904200
 C  -13.92145300   38.49801500    8.41209800
 C  -15.20874000   38.20229200    7.99304900
 C  -15.61602700   36.88679600    7.90342800
 C  -13.03763900   37.49596900    8.76615100
 C  -13.45107900   36.17995100    8.67283700
 C  -14.73081000   35.85886200    8.22539500
 N  -15.05748900   34.51326500    8.09816100
 C  -16.15012900   33.96860700    7.48064000
 O  -17.21224900   34.54699400    7.29989900
 N  -16.01943800   32.64818200    7.14028000
 C  -14.86208200   31.89694300    6.90319200
 C  -14.85438200   30.53692100    7.18649700
 C  -13.71841700   29.78362900    6.92994300
 C  -12.62148400   30.42138200    6.38187500
 N  -12.61793000   31.71040400    6.07486600
 C  -13.69463500   32.43498400    6.31027000
 O  -13.73094200   33.72825300    5.91536300
 C  -12.57290100   34.48778800    5.80100200
 C  -11.54176100   34.30221300    6.71141500
 C  -10.43405100   35.12681200    6.69921000
 C  -10.36897900   36.15115700    5.77577200
 C  -11.39692000   36.32682100    4.86633100
 C  -12.52013800   35.50696600    4.84070900
 C  -13.63427300   35.70884300    3.82180700
 C  -14.92800300   36.09615700    4.55130800
 C  -13.31428200   36.82438900    2.82039500
 C  -13.84064800   34.41498200    3.02063500
32
-95.7281941534
 F  -19.15741700   35.31720800   -3.26974100
 C  -17.97892500   35.81606700   -3.69413900
 F  -18.22276600   36.39832700   -4.87166000
 F  -17.22419700   34.72790900   -3.97349800
 O  -17.42442200   36.67986400   -2.89463800
 C  -17.18296300   36.35161400   -1.53074100
 C  -17.27597200   35.07209300   -1.01403800
 C  -17.03262500   34.87830900    0.33351200
 C  -16.81277200   37.42111200   -0.73089600
 C  -16.55597000   37.21711000    0.61019300
 C  -16.69437100   35.94450900    1.16524300
 N  -16.44269900   35.67652000    2.50613200
 C  -16.49499200   36.45925000    3.62299000
 O  -15.93698000   36.08489100    4.65233400
 N  -17.12683900   37.66866100    3.60211800
 C  -18.18503000   38.16489700    2.83027400
 C  -18.29019300   39.53782700    2.64892300
 C  -19.34884900   40.06414900    1.92454800
 C  -20.28748000   39.18637900    1.41889900
 N  -20.22098300   37.87634300    1.60420200
 C  -19.21170000   37.36376200    2.28106500
 O  -19.17974800   36.03860900    2.53220400
 C  -20.01717000   35.16672200    1.84128300
 C  -20.17009400   35.31846900    0.47017200
 C  -20.91922500   34.41713900   -0.25965000
 C  -21.51499500   33.35516600    0.39286100
 C  -21.36110600   33.21013900    1.76028100
 C  -20.61661000   34.10150000    2.52700500
 C  -20.46501600   33.92319300    4.03320000
 C  -20.99051900   35.17232600    4.75514400
 C  -21.25317500   32.71969500    4.56288100
 C  -18.98511800   33.69687600    4.37283500
32
-95.72793981151
 F   -9.83882200   35.68664000    9.91483000
 C   -9.58121900   34.44053100    9.46077100
 F   -8.26168900   34.27087500    9.56456500
 F   -9.85031200   34.50187500    8.13665100
 O  -10.20807200   33.49239400   10.09730900
 C  -11.63826100   33.58563900   10.04530600
 C  -12.31762400   32.95560700    9.01773300
 C  -13.69358000   33.06268900    8.95841500
 C  -12.30686300   34.28365800   11.03570200
 C  -13.68203000   34.39635400   10.96397000
 C  -14.38333600   33.82498300    9.90245000
 N  -15.76100600   33.99616100    9.83374800
 C  -16.58235600   34.07123400    8.74266200
 O  -17.79372500   33.92216700    8.87096900
 N  -16.04113200   34.28285400    7.50908300
 C  -14.82935500   34.88930800    7.14335000
 C  -14.14898900   34.43837600    6.02227500
 C  -12.95775100   35.04279100    5.64648800
 C  -12.49978300   36.10104000    6.40491600
 N  -13.15596100   36.57355500    7.45553700
 C  -14.28371600   36.00033600    7.82731900
 O  -14.99403500   36.50486900    8.85511400
 C  -14.49902000   37.56405000    9.61578800
 C  -13.19135500   37.51787600   10.07758800
 C  -12.69737100   38.51690900   10.89302300
 C  -13.52430100   39.56372100   11.25117700
 C  -14.82833300   39.60252200   10.79027500
 C  -15.35746300   38.61713200    9.96206400
 C  -16.79666800   38.68520400    9.46390200
 C  -17.57855300   37.48159500   10.00786700
 C  -17.51795300   39.95562000    9.92906500
 C  -16.81494100   38.68313100    7.92840800
32
-95.72783631278
 F  -14.81365600   26.84577400    7.89417100
 C  -15.22848800   27.00460300    9.17425200
 F  -15.16204100   25.78984500    9.72474000
 F  -16.53958700   27.30520100    9.07346600
 O  -14.52387500   27.83995100    9.87963300
 C  -14.61959600   29.23908900    9.63180300
 C  -15.10538200   29.77655000    8.45475400
 C  -15.17256200   31.15287500    8.32173200
 C  -14.15943100   30.05302500   10.65562700
 C  -14.23895500   31.42339300   10.51979100
 C  -14.78312100   31.98869300    9.36568400
 N  -14.87356000   33.37393800    9.27331100
 C  -15.75453900   34.16324300    8.59016400
 O  -15.49012600   35.34504400    8.38486700
 N  -16.91542300   33.63066900    8.11122900
 C  -17.64833100   32.50924600    8.52548500
 C  -18.36367200   31.77760700    7.58913300
 C  -19.10431200   30.67532000    7.99133700
 C  -19.11540800   30.35633100    9.33422000
 N  -18.47267200   31.06710500   10.25028800
 C  -17.75942500   32.11170900    9.87806900
 O  -17.15535300   32.88327500   10.80250900
 C  -17.15384600   32.51729900   12.14811600
 C  -16.82394900   31.21575100   12.49823900
 C  -16.74316200   30.84470600   13.82605100
 C  -16.98989600   31.78721000   14.80519300
 C  -17.31490700   33.08413000   14.44936400
 C  -17.41009300   33.49227900   13.12229000
 C  -17.77346800   34.92631500   12.75508900
 C  -16.60546100   35.56650600   11.99205500
 C  -19.04260800   34.93297100   11.89056300
 C  -18.05304600   35.79434800   13.98750300
