30
-46.47661969284
 O  -17.36697700   -5.34894200   21.52710100
 C  -17.88598900   -4.08055000   21.17555200
 C  -16.74793300   -3.05211100   21.17268500
 N  -16.40163500   -2.57961900   22.49489100
 C  -16.56458000   -1.31730000   22.87145000
 O  -16.20257100   -0.86360600   23.95291000
 C  -15.86197000   -3.55329900   23.43621100
 C  -14.41221800   -3.85151100   23.17618400
 C  -14.04475800   -4.97021100   22.49053800
 N  -12.73814800   -5.24813900   22.27662100
 C  -11.77585000   -4.42869200   22.76491000
 C  -10.36229500   -4.79652200   22.53011500
 N  -12.06858400   -3.34656100   23.41730300
 C  -13.35560600   -2.99357700   23.63585000
 N  -13.56667000   -1.87355800   24.28796300
 H  -18.05298500   -6.02149000   21.43056900
 H  -18.66459200   -3.76885500   21.88355400
 H  -18.31897200   -4.11417000   20.16984900
 H  -17.04428400   -2.19601900   20.56730500
 H  -15.86899300   -3.52133900   20.72211300
 H  -17.05344300   -0.67915300   22.12261200
 H  -16.43665200   -4.47377400   23.33188700
 H  -15.99617300   -3.14828200   24.44161900
 H  -14.78023900   -5.66179000   22.10605400
 H   -9.71195800   -4.03903500   22.95285800
 H  -10.14083900   -5.75533800   22.99426900
 H  -10.16495800   -4.88473300   21.46403300
 H  -12.76600000   -1.33259500   24.57778700
 H  -14.50028900   -1.48339000   24.41191100
 H  -12.47579800   -6.08546500   21.76569600
30
-46.47661417203
 O  -12.70580100   -1.60504900   23.24666300
 C  -13.09391200   -1.75406500   24.59911700
 C  -14.44631800   -1.06360200   24.81502600
 N  -15.57168300   -1.85799800   24.37515300
 C  -16.50187300   -2.30863200   25.20812200
 O  -17.51367600   -2.90917900   24.85871600
 C  -15.65924800   -2.16959700   22.95367800
 C  -16.17775100   -1.01034100   22.14958800
 C  -15.32127800   -0.19644400   21.47098500
 N  -15.79208100    0.83181700   20.72828600
 C  -17.12556600    1.05033300   20.63022800
 C  -17.58860000    2.16759800   19.77820500
 N  -17.98541400    0.31349300   21.26280800
 C  -17.57891500   -0.70883700   22.04908000
 N  -18.51115700   -1.39251100   22.67173500
 H  -11.80646800   -1.93479900   23.12612500
 H  -12.35881100   -1.27962100   25.25830000
 H  -13.17231500   -2.81567300   24.86634800
 H  -14.43774200   -0.12237100   24.25808700
 H  -14.57048900   -0.84810800   25.87590100
 H  -16.30617400   -2.09348000   26.26744700
 H  -16.31614800   -3.03544900   22.84641400
 H  -14.65853100   -2.42264100   22.60335400
 H  -14.25266500   -0.35136700   21.50391700
 H  -18.67096100    2.22441100   19.80649900
 H  -17.17111500    3.10945200   20.12752400
 H  -17.26579800    2.01666800   18.75028200
 H  -19.47241800   -1.11439500   22.54395900
 H  -18.29040500   -2.11435600   23.35684100
 H  -15.14438200    1.43078600   20.22552900
30
-46.47646654308
 O  -19.18506200   -3.68037100   20.20309800
 C  -17.93895200   -4.22195200   19.81412700
 C  -16.81478700   -3.22629800   20.12364600
 N  -16.59044000   -3.05417600   21.54509300
 C  -15.99070000   -4.00011100   22.25961700
 O  -15.86857000   -3.98379700   23.48057800
 C  -17.05322000   -1.83503900   22.19370900
 C  -18.53839200   -1.82574800   22.42724300
 C  -19.37845400   -1.12484800   21.61614200
 N  -20.71060100   -1.11894400   21.84173200
 C  -21.23155500   -1.80770100   22.88367700
 C  -22.69608900   -1.75698700   23.09057000
 N  -20.48173800   -2.49498400   23.68810800
 C  -19.14394900   -2.55701500   23.50496800
 N  -18.46285900   -3.28216800   24.36304300
 H  -19.88703600   -4.25985700   19.87982800
 H  -17.92457100   -4.41882000   18.73591800
 H  -17.75034100   -5.16361000   20.34670200
 H  -17.07287000   -2.25868700   19.69549000
 H  -15.89912000   -3.59174000   19.65346700
 H  -15.59211900   -4.83060400   21.66076300
 H  -16.77742900   -0.98824600   21.56273400
 H  -16.52069600   -1.75703500   23.14520400
 H  -19.01839100   -0.54827400   20.77883200
 H  -22.96447500   -2.35232000   23.95596300
 H  -23.01935700   -0.73045900   23.24928700
 H  -23.21533800   -2.14228900   22.21589800
 H  -18.97432400   -3.76015500   25.08927800
 H  -17.46438900   -3.45893000   24.26201500
 H  -21.32597000   -0.60160300   21.22190100
30
-46.47644875231
 O  -17.70004000   -5.71761600   25.65311800
 C  -18.51468600   -4.57382600   25.81303900
 C  -18.47860900   -3.72312800   24.53809800
 N  -17.19298200   -3.09176200   24.31734200
 C  -16.80960000   -2.05279400   25.05114100
 O  -15.69642800   -1.53802700   25.00879900
 C  -16.30442700   -3.62955500   23.29630100
 C  -15.61602400   -4.89449500   23.72803900
 C  -16.03325900   -6.11297300   23.28464900
 N  -15.40437200   -7.24277300   23.67612400
 C  -14.34601700   -7.18074300   24.51731100
 C  -13.68731500   -8.44810300   24.90460600
 N  -13.90485800   -6.04979900   24.97328700
 C  -14.49799900   -4.88509800   24.62925000
 N  -13.98405900   -3.78769300   25.13720700
 H  -17.84866300   -6.30851300   26.40235700
 H  -18.16493200   -3.97470900   26.66451000
 H  -19.55604400   -4.86480900   25.99269000
 H  -19.25022200   -2.95453200   24.61922900
 H  -18.70046500   -4.36139100   23.68372400
 H  -17.58756000   -1.66667800   25.72418400
 H  -15.56655200   -2.85371100   23.07526600
 H  -16.89467900   -3.82371500   22.39905800
 H  -16.86457000   -6.22256500   22.60631300
 H  -12.89406300   -8.24625400   25.61552400
 H  -14.40643400   -9.13159100   25.34972700
 H  -13.26125100   -8.93122800   24.02752400
 H  -13.19640200   -3.87856100   25.76064500
 H  -14.40514800   -2.86992900   25.00227100
 H  -15.73304100   -8.14447600   23.34556400
30
-46.47601671131
 O  -15.42198600   -1.43211100   24.77345000
 C  -16.71793600   -1.43183300   25.34475200
 C  -17.10318200   -2.85832900   25.75444400
 N  -17.50607900   -3.68315100   24.63549100
 C  -18.73219700   -4.19155900   24.52667600
 O  -19.10486500   -4.93530800   23.63042900
 C  -16.52496000   -3.98446300   23.59913600
 C  -15.66643500   -5.16307300   23.97461300
 C  -16.08415500   -6.43077000   23.69849000
 N  -15.32142900   -7.49845100   24.02687400
 C  -14.11718000   -7.32017000   24.62349300
 C  -13.30902800   -8.51886500   24.93746300
 N  -13.67412600   -6.13869500   24.91783800
 C  -14.39885500   -5.03073300   24.63831000
 N  -13.87895600   -3.88108500   25.00081100
 H  -15.11730200   -0.52530800   24.64260000
 H  -17.45208500   -1.04382800   24.62805300
 H  -16.73464100   -0.80425800   26.24157700
 H  -17.93790300   -2.80367500   26.45364600
 H  -16.25297200   -3.32294100   26.26090600
 H  -19.41394500   -3.88603000   25.33614800
 H  -15.92186900   -3.09727700   23.41544100
 H  -17.09220400   -4.23301500   22.69871200
 H  -17.03296500   -6.61468200   23.21658100
 H  -12.38021900   -8.22030700   25.41042700
 H  -13.85577000   -9.18016200   25.60625500
 H  -13.08568000   -9.07147100   24.02730900
 H  -12.97284200   -3.89261800   25.44493700
 H  -14.35548700   -2.99403500   24.86137500
 H  -15.64650900   -8.43609300   23.81394400
30
-46.47546886415
 O  -15.38238000   -3.45519700   24.36960400
 C  -14.24294900   -2.73697000   24.80906600
 C  -13.57447400   -2.06185600   23.60565800
 N  -14.45598600   -1.11395400   22.95110900
 C  -14.48034000    0.16475300   23.31869100
 O  -15.17819300    1.04378300   22.83426700
 C  -15.24917600   -1.62915200   21.83347000
 C  -16.53492900   -0.88219400   21.64034300
 C  -16.76789400   -0.11520600   20.53975600
 N  -17.93027800    0.56429400   20.40673800
 C  -18.86803600    0.51705200   21.38056900
 C  -20.10134000    1.31630400   21.20188800
 N  -18.71295200   -0.21671900   22.43911800
 C  -17.58793600   -0.94230500   22.61590000
 N  -17.52664000   -1.69112200   23.69354000
 H  -15.62628500   -4.12194900   25.02459300
 H  -13.51325700   -3.40644800   25.27178300
 H  -14.54035900   -1.97427000   25.54024900
 H  -13.28430000   -2.82191500   22.87930900
 H  -12.67807700   -1.54726600   23.95375700
 H  -13.79078000    0.38358000   24.15122600
 H  -15.46270700   -2.67936600   22.04695100
 H  -14.65431900   -1.56473300   20.91629400
 H  -16.04159100   -0.01240500   19.74906200
 H  -20.77782400    1.13460000   22.02939600
 H  -19.85732400    2.37621500   21.16986300
 H  -20.59369300    1.05352700   20.26838900
 H  -18.31621600   -1.67531200   24.32083800
 H  -16.73798000   -2.30654600   23.88935500
 H  -18.08313900    1.14599900   19.58938700
30
-46.47543113613
 O  -17.54859500   -1.01016900   25.22363000
 C  -16.27184600   -0.77708400   24.65588800
 C  -16.23246500   -1.36792100   23.24161000
 N  -16.46349100   -2.80003200   23.24273100
 C  -15.45076700   -3.65618000   23.35322600
 O  -15.53213800   -4.87594000   23.36409300
 C  -17.84842900   -3.23480900   23.05112000
 C  -18.13221800   -4.56623300   23.67979800
 C  -18.42590700   -5.66893100   22.93709400
 N  -18.65325200   -6.86151500   23.53464500
 C  -18.55931100   -6.98437700   24.87853100
 C  -18.76233500   -8.32485200   25.47329900
 N  -18.31326600   -5.96293200   25.63951300
 C  -18.11032900   -4.73942000   25.10605000
 N  -17.91278400   -3.74921500   25.94651000
 H  -17.70119400   -0.40045500   25.95686000
 H  -15.49606700   -1.24797700   25.27327400
 H  -16.06565200    0.29398400   24.58356200
 H  -15.25605600   -1.15481100   22.80522000
 H  -17.00197100   -0.89493400   22.63039000
 H  -14.47399400   -3.15334500   23.44987200
 H  -18.05684600   -3.29199600   21.97761100
 H  -18.49082600   -2.47276100   23.49909500
 H  -18.47702800   -5.63760600   21.86022200
 H  -18.76033200   -8.24925900   26.55482600
 H  -19.70425900   -8.75389600   25.14018300
 H  -17.95828700   -8.99102000   25.16623000
 H  -17.92116500   -3.96255600   26.93222500
 H  -17.79053300   -2.78475500   25.64022500
 H  -18.85528000   -7.67876000   22.96792900
30
-46.47484625801
 O  -18.36161800   -5.31808600   20.99679300
 C  -18.46150700   -4.12514300   20.25548900
 C  -17.24201800   -3.19791300   20.44518300
 N  -16.79893300   -3.15160500   21.82172800
 C  -15.61841400   -3.64205600   22.18373500
 O  -15.19755100   -3.67617200   23.33579700
 C  -17.64815900   -2.50516000   22.81407900
 C  -18.75939200   -3.38035200   23.33455500
 C  -20.05924800   -3.12752100   23.01441400
 N  -21.05662800   -3.91917500   23.47051800
 C  -20.77565300   -4.98897800   24.25168700
 C  -21.89860200   -5.84737300   24.68875300
 N  -19.56355800   -5.25558600   24.62330200
 C  -18.52481800   -4.49212700   24.21627700
 N  -17.34556100   -4.80374500   24.69941200
 H  -17.71166300   -5.90573000   20.59130800
 H  -19.36677700   -3.63603900   20.61477200
 H  -18.58292000   -4.32448600   19.18556000
 H  -17.50790100   -2.19327000   20.10739800
 H  -16.40869300   -3.55668700   19.83850500
 H  -15.01142000   -4.02607600   21.35272900
 H  -18.07792500   -1.61091400   22.35899700
 H  -16.99616800   -2.20843900   23.64145300
 H  -20.34455000   -2.28577900   22.40130200
 H  -21.52408000   -6.64766100   25.31690900
 H  -22.62709100   -5.26402100   25.24767100
 H  -22.40088500   -6.27729300   23.82471700
 H  -17.28418000   -5.60137800   25.31387800
 H  -16.48941700   -4.33097100   24.41059400
 H  -22.01900100   -3.72021900   23.21580400
30
-46.47424212948
 O  -15.78576600   -3.43355700   25.33193400
 C  -15.14598400   -4.22641800   24.34789000
 C  -16.15230900   -4.63301200   23.26865300
 N  -16.53348000   -3.52742400   22.40863200
 C  -16.05905800   -3.46568000   21.16508800
 O  -15.32175600   -4.29057500   20.64487800
 C  -17.40298900   -2.49873800   22.95386800
 C  -18.82595100   -2.98316500   23.09635100
 C  -19.68936800   -2.91161900   22.04432200
 N  -20.97076900   -3.32710100   22.16392300
 C  -21.42567200   -3.80691800   23.34784800
 C  -22.84169300   -4.22390400   23.43429000
 N  -20.65048500   -3.90160500   24.38090100
 C  -19.35127200   -3.52826900   24.32032100
 N  -18.64626900   -3.68764600   25.41496300
 H  -15.17560700   -3.25602300   26.05902100
 H  -14.74244500   -5.13945600   24.79809300
 H  -14.32247400   -3.67037000   23.88330800
 H  -17.04328200   -5.05867800   23.73219200
 H  -15.68468000   -5.38289800   22.62741800
 H  -16.39596700   -2.57690600   20.60689500
 H  -17.38405000   -1.64562100   22.27388800
 H  -17.00662100   -2.18359000   23.92002700
 H  -19.38508200   -2.51951200   21.08609300
 H  -23.04785100   -4.61968600   24.42237800
 H  -23.49546300   -3.37407900   23.24832600
 H  -23.06033000   -4.98510900   22.68864800
 H  -19.11585700   -4.06550600   26.22455400
 H  -17.64687300   -3.50114200   25.45911000
 H  -21.59932800   -3.26689300   21.36913900
30
-46.47420267772
 O  -16.13193100   -1.45350600   24.20787200
 C  -17.26388300   -0.64080100   23.95402200
 C  -18.53081900   -1.49943900   23.94488000
 N  -18.64579800   -2.32169100   22.75438900
 C  -19.53957800   -2.00551500   21.81817900
 O  -20.32293100   -1.06849900   21.87146600
 C  -17.74835300   -3.45566800   22.61036200
 C  -18.14806000   -4.60508300   23.50412900
 C  -19.07595200   -5.51319200   23.09006400
 N  -19.42953400   -6.55692300   23.87412900
 C  -18.84613400   -6.72910100   25.08607100
 C  -19.24802000   -7.90012600   25.89463600
 N  -17.96135600   -5.89634700   25.53407200
 C  -17.58389000   -4.81649500   24.81115100
 N  -16.69958500   -4.02256000   25.36588600
 H  -15.34615600   -0.90259200   24.31554600
 H  -17.16245600   -0.13267500   22.98722200
 H  -17.37147500    0.11620100   24.73796100
 H  -19.39813100   -0.83597900   23.95123600
 H  -18.55548300   -2.13306200   24.83277400
 H  -19.52646800   -2.68268000   20.94847900
 H  -16.73358600   -3.12701800   22.83833900
 H  -17.78335700   -3.78454700   21.57060600
 H  -19.55515000   -5.43591400   22.12622500
 H  -18.69517300   -7.90816100   26.82726600
 H  -20.31365000   -7.86260700   26.11092900
 H  -19.04812400   -8.82150400   25.35174300
 H  -16.35529700   -4.27085100   26.28169800
 H  -16.39225900   -3.15244500   24.93709900
 H  -20.12400500   -7.22233600   23.54961800
30
-46.47388420389
 O  -15.05229300   -0.23767000   20.55215400
 C  -16.18205700   -0.88507500   19.99921600
 C  -17.32705500   -0.77787700   21.01256100
 N  -17.05449300   -1.53743900   22.21413700
 C  -16.32076300   -1.03270600   23.20108500
 O  -16.04258700   -1.63737700   24.23308600
 C  -17.44360300   -2.94216900   22.23669500
 C  -18.87486200   -3.13373400   22.66244100
 C  -19.85727900   -3.39192000   21.75480100
 N  -21.13646600   -3.58378600   22.15305100
 C  -21.45655900   -3.54644400   23.46892700
 C  -22.86506500   -3.78650300   23.85052400
 N  -20.56398800   -3.30633200   24.37787000
 C  -19.27312900   -3.07904200   24.04489700
 N  -18.43888900   -2.84412100   25.02883100
 H  -14.31566900   -0.27419000   19.92984200
 H  -15.95232400   -1.93805500   19.79278900
 H  -16.49024800   -0.39699900   19.06703300
 H  -18.25120300   -1.14264300   20.56614700
 H  -17.44495100    0.27345500   21.27925500
 H  -15.98448000   -0.00370900   23.03153900
 H  -16.77489100   -3.45739900   22.93130500
 H  -17.30293800   -3.35517800   21.23673100
 H  -19.65608200   -3.46769100   20.69710800
 H  -22.96343400   -3.74833900   24.92957700
 H  -23.51045300   -3.03122700   23.40672700
 H  -23.19304200   -4.76075500   23.49468300
 H  -18.80739800   -2.82775700   25.96812800
 H  -17.46825200   -2.56716300   24.87242400
 H  -21.85812600   -3.77631700   21.46525500
30
-46.47384541433
 O  -18.20023300   -5.62751000   21.14675200
 C  -16.86995000   -5.49683500   20.68348300
 C  -16.62709200   -4.01645000   20.36781100
 N  -16.66269100   -3.20012200   21.56245300
 C  -17.81051000   -2.75401300   22.06271200
 O  -17.90166200   -2.07396500   23.08109100
 C  -15.42426900   -3.03727300   22.31393200
 C  -14.57785000   -1.91049100   21.78477300
 C  -13.48136900   -2.14940500   21.01251600
 N  -12.71731500   -1.12894500   20.55829500
 C  -13.02088200    0.15084600   20.88357300
 C  -12.13991500    1.22508200   20.37654100
 N  -14.04985200    0.43876400   21.61779900
 C  -14.86644100   -0.53247400   22.08544000
 N  -15.88099600   -0.15117600   22.82359000
 H  -18.38882300   -6.55302000   21.34462100
 H  -16.71948600   -6.08199300   19.76854900
 H  -16.16601300   -5.84474200   21.44996500
 H  -17.41321300   -3.68237500   19.68904800
 H  -15.65824900   -3.89476000   19.88511600
 H  -18.69481600   -3.02924000   21.47694700
 H  -14.86241000   -3.97086700   22.26058400
 H  -15.69508500   -2.84460100   23.35550400
 H  -13.17379200   -3.14924500   20.74677700
 H  -12.52407700    2.19097200   20.68428400
 H  -11.13285700    1.10227000   20.76991200
 H  -12.08379300    1.18983300   19.29080400
 H  -16.00446200    0.83701500   22.98606100
 H  -16.60199700   -0.79975100   23.14349300
 H  -11.90063500   -1.32275100   19.98686800
30
-46.47375394379
 O  -15.65507300   -5.06009000   23.48106100
 C  -15.63202500   -5.32924600   22.08982100
 C  -16.99493600   -5.01445100   21.45728700
 N  -17.31282300   -3.60264200   21.44564600
 C  -17.26183700   -2.87224300   20.33281800
 O  -17.54128600   -1.68423700   20.25550200
 C  -17.69387400   -2.96558600   22.70058700
 C  -19.06783200   -3.38119500   23.15303500
 C  -20.17156400   -2.73434400   22.68305100
 N  -21.41033000   -3.08385100   23.09799200
 C  -21.57079200   -4.07322200   24.01108500
 C  -22.94289400   -4.39366300   24.46055100
 N  -20.55825300   -4.72614500   24.48766000
 C  -19.29489300   -4.44528000   24.09339900
 N  -18.34085100   -5.18057400   24.61590200
 H  -14.78125300   -4.79117300   23.78776500
 H  -15.43393000   -6.39732400   21.93383100
 H  -14.85147500   -4.75178100   21.58826100
 H  -17.77476100   -5.55155900   22.00047300
 H  -16.97710000   -5.37375200   20.42775800
 H  -16.94125600   -3.44171700   19.44589200
 H  -17.68792000   -1.89017600   22.50530300
 H  -16.94858200   -3.19992800   23.45949900
 H  -20.08808300   -1.92745000   21.97044000
 H  -22.92852200   -5.29022900   25.07018500
 H  -23.33809600   -3.57281600   25.05658100
 H  -23.60385200   -4.53939400   23.60980300
 H  -18.60667700   -5.89385300   25.27872300
 H  -17.36561000   -5.09676800   24.34353300
 H  -22.22155200   -2.58915600   22.74114800
