24
-54.95032844833
 C   11.85515800   -5.97750600  -16.83229600
 C   12.58602500   -5.91580500  -15.65056000
 C   13.99050400   -5.70702900  -15.68466200
Cl   11.68102900   -5.88009800  -19.50780500
 C   14.68025900   -5.55519700  -16.87680400
Cl   14.73583600   -5.42234600  -19.55461500
 C   13.93485400   -5.61389100  -18.03845400
 C   12.54843900   -5.82187700  -18.01429800
 N   14.38048400   -5.71956500  -14.38084600
 C   13.25371300   -5.87913300  -13.62959700
 N   12.17039700   -6.02465300  -14.35237100
 C   13.39465700   -5.92655600  -12.15717500
 N   12.30371300   -5.69606800  -11.40049800
 C   12.01258000   -3.42104700  -12.29502800
 O   13.22128200   -3.52083600  -12.58572700
 O   11.30642300   -2.40427200  -12.33422400
 O   14.46956400   -6.29191800  -11.66628900
 C   11.30992200   -4.75487500  -11.84027200
 H   10.79036400   -6.13374400  -16.82303900
 H   15.74422600   -5.39301700  -16.90989600
 H   12.52425100   -5.66310500  -10.41108700
 H   10.59985500   -4.54380800  -11.04449400
 H   10.78735400   -5.14088700  -12.71617400
 H   15.29250600   -5.54942300  -13.98779100
24
-54.95031462794
 C   14.35771200  -11.28548000  -15.18657500
 C   13.36965800  -10.63281200  -14.45692300
 C   11.99749800  -10.84214700  -14.75836500
Cl   15.13786400  -12.94844000  -17.14213500
 C   11.59175700  -11.68971000  -15.77677800
Cl   12.14668000  -13.38591000  -17.77833000
 C   12.58879400  -12.32427500  -16.49207500
 C   13.94573600  -12.12436100  -16.20071300
 N   11.31886000  -10.07857700  -13.85931500
 C   12.25026200   -9.42660500  -13.10645200
 N   13.48117900   -9.75078700  -13.41825800
 C   11.77510800   -8.52003400  -12.03797500
 N   12.63372800   -7.61062200  -11.53705600
 C   12.91980600   -6.49652700  -13.71348600
 O   13.51961800   -5.62933700  -14.36315700
 O   11.82758400   -7.03347600  -13.98571300
 O   10.65200000   -8.70087000  -11.55143500
 C   13.61440300   -7.00007200  -12.39269000
 H   15.40161700  -11.13555400  -14.97193000
 H   10.55360300  -11.85100900  -16.01263600
 H   12.18603500   -6.98591800  -10.87535200
 H   14.35767000   -7.73751900  -12.69800000
 H   14.09886200   -6.16657300  -11.89014300
 H   10.32707600   -9.92016000  -13.77821300
24
-54.95031259575
 C    9.43498100   -3.04747400  -13.99915700
 C    9.59854300   -4.38214800  -13.64338200
 C    8.64830900   -5.35571100  -14.05149900
Cl    8.09051800   -1.08107500  -15.23356700
 C    7.53844500   -5.02311700  -14.81159200
Cl    6.04041100   -3.21886500  -16.11225400
 C    7.39777100   -3.69342400  -15.15870700
 C    8.32967800   -2.72531000  -14.75838500
 N    9.09680800   -6.52810300  -13.52558900
 C   10.26998800   -6.25502900  -12.88628900
 N   10.58707600   -4.98384400  -12.91495600
 C   10.97655400   -7.36874100  -12.21534800
 N   12.28134500   -7.21468000  -11.91883700
 C   12.91966800   -6.91154800  -14.27776900
 O   13.82391800   -6.64239800  -15.08014000
 O   11.84463600   -7.49933300  -14.51018000
 O   10.32943000   -8.35422300  -11.84084100
 C   13.13379500   -6.44939400  -12.78729000
 H   10.14667700   -2.29798500  -13.69908400
 H    6.81603300   -5.75646900  -15.12742900
 H   12.69277000   -8.06075500  -11.54013200
 H   14.17756700   -6.57413900  -12.51012600
 H   12.85904800   -5.39476800  -12.74962900
 H    8.72553100   -7.45843900  -13.63508700
24
-54.95030561447
 C   13.52451500   -7.68611600  -15.72906500
 C   12.54372700   -7.42565400  -14.77789200
 C   11.17776000   -7.69106000  -15.06269300
Cl   14.29186100   -8.52779500  -18.15842400
 C   10.77090500   -8.21187600  -16.28061300
Cl   11.31473900   -9.09799100  -18.75247200
 C   11.75990800   -8.45823900  -17.21314600
 C   13.11077500   -8.19935400  -16.94041400
 N   10.50770800   -7.34300900  -13.93046100
 C   11.43237500   -6.85829400  -13.05323900
 N   12.65770900   -6.91587600  -13.51437700
 C   10.96565700   -6.40402100  -11.72465500
 N   11.76841800   -5.59818500  -11.00273000
 C   11.74361300   -3.82624800  -12.71148200
 O   10.69089500   -4.38094700  -13.08474000
 O   12.19240000   -2.73117800  -13.07669200
 O    9.91566800   -6.86853400  -11.26377400
 C   12.60133200   -4.63058100  -11.66364100
 H   14.56321800   -7.48799400  -15.52861600
 H    9.73722800   -8.41389500  -16.50444400
 H   11.32148500   -5.27564800  -10.15132100
 H   13.38555500   -5.13380000  -12.23025600
 H   13.04132800   -3.94574800  -10.94303900
 H    9.51538700   -7.33397200  -13.75572100
24
-54.94907986459
 C   10.61908600   -7.52447500   -5.60615000
 C   10.36626600   -7.31595200   -6.95869200
 C    9.04336200   -7.42031200   -7.46607800
Cl    9.80396800   -8.09279200   -3.11386800
 C    7.96519700   -7.72429600   -6.64831400
Cl    6.93661500   -8.31044200   -4.24143600
 C    8.23788300   -7.92614500   -5.31088700
 C    9.54216200   -7.82723000   -4.80105800
 N    9.14406200   -7.16698800   -8.79925300
 C   10.46346600   -6.93331800   -9.04842200
 N   11.22050900   -7.00448400   -7.98014900
 C   10.93837800   -6.54047200  -10.40236200
 N   10.61666600   -7.33714800  -11.42826700
 C    8.29600500   -8.16869200  -11.82876700
 O    7.88959700   -8.59587300  -12.91379100
 O    7.64776600   -7.48612400  -11.00489400
 O   11.60623200   -5.52028800  -10.56920900
 C    9.78516500   -8.51410100  -11.44279800
 H   11.61521400   -7.44891100   -5.20601100
 H    6.96347400   -7.80204100   -7.03630700
 H   10.89147900   -6.98387200  -12.33699900
 H    9.79367700   -8.99112900  -10.46168000
 H   10.16499800   -9.20756600  -12.19429400
 H    8.41511100   -7.21077100   -9.53357700
24
-54.9490798261
 C   10.52086500   -6.68232700   -5.55812900
 C   10.25900800   -6.68231000   -6.92491200
 C    8.95355000   -6.97038400   -7.40582500
Cl    9.74327700   -6.97686000   -3.00711100
 C    7.90154700   -7.25573900   -6.54824000
Cl    6.91418400   -7.60021000   -4.07811900
 C    8.18272400   -7.24972700   -5.19743000
 C    9.46984500   -6.96715600   -4.71324400
 N    9.03992300   -6.89162300   -8.76150000
 C   10.33512100   -6.57874100   -9.04780100
 N   11.08894100   -6.43810300   -7.98395700
 C   10.78124700   -6.33323600  -10.44562300
 N   10.53644700   -7.28679600  -11.35193900
 C    8.29503500   -8.35087800  -11.62735400
 O    7.58728700   -7.62227200  -10.89697900
 O    7.93313900   -8.94634100  -12.64678100
 O   11.35845800   -5.29075600  -10.75393900
 C    9.80416000   -8.51941600  -11.20422800
 H   11.50396200   -6.46552400   -5.17781100
 H    6.91314300   -7.47395000   -6.91636700
 H   10.78491100   -7.03726100  -12.30164800
 H    9.84507600   -8.85733500  -10.16778500
 H   10.24590500   -9.27336700  -11.85724000
 H    8.32118300   -7.09445000   -9.47875900
24
-54.94907399533
 C    8.07772500   -4.25931000  -16.19175800
 C    8.15104300   -5.05818600  -15.05457600
 C    7.90347200   -6.45449300  -15.14158200
Cl    7.65185900   -3.92931400  -18.82000300
 C    7.58064200   -7.06981000  -16.34196500
Cl    7.11915500   -6.96756500  -18.98239100
 C    7.51341500   -6.25947600  -17.45664900
 C    7.75715400   -4.87907600  -17.38034700
 N    8.05606700   -6.93049500  -13.87611100
 C    8.38376300   -5.86009000  -13.09856900
 N    8.44174400   -4.72903300  -13.75922600
 C    8.55319600   -5.99831900  -11.62706600
 N    9.42230600   -6.91584400  -11.18765300
 C    9.46608700   -9.26964300  -12.02784200
 O    8.39333000   -9.30265400  -12.67021800
 O   10.01157800  -10.21709800  -11.45382900
 O    7.91704000   -5.29248300  -10.84485500
 C   10.19377200   -7.87338300  -11.93914800
 H    8.26093800   -3.19999700  -16.14384100
 H    7.39440600   -8.12884800  -16.40387300
 H    9.44354500   -7.02722300  -10.18119100
 H   11.14782600   -8.03465200  -11.43547400
 H   10.36779600   -7.50241900  -12.95033200
 H    8.02776000   -7.90668500  -13.53215200
24
-54.94905121408
 C   13.80340700   -7.47336700   -7.05794900
 C   13.50709800   -6.45092100   -7.95517700
 C   13.89415300   -5.11303400   -7.67270100
Cl   14.87453400   -8.36547900   -4.76403000
 C   14.57261300   -4.77546500   -6.51118600
Cl   15.70489800   -5.44970700   -4.17476600
 C   14.85809100   -5.80480200   -5.63646500
 C   14.47922400   -7.12971600   -5.90705300
 N   13.45109200   -4.38375200   -8.73351600
 C   12.84979600   -5.25728900   -9.59055700
 N   12.86101200   -6.49554800   -9.15803300
 C   12.29310700   -4.78387600  -10.87328400
 N   11.76979800   -5.75494800  -11.63995500
 C   13.05774500   -5.42506300  -13.73220400
 O   13.05705400   -5.38895900  -14.97315000
 O   14.03280700   -5.37670000  -12.96483100
 O   12.26293700   -3.57786200  -11.13274100
 C   11.63508600   -5.53716800  -13.05181000
 H   13.51786500   -8.49121200   -7.25917400
 H   14.87031400   -3.76443600   -6.29127600
 H   12.00126400   -6.69448800  -11.34254600
 H   11.13755400   -4.58114400  -13.22682500
 H   11.07220700   -6.34218300  -13.51821900
 H   13.55068900   -3.39718900   -8.91791700
24
-54.94902619187
 C   11.86851200  -12.79460100  -12.80921500
 C   12.23808300  -11.57548700  -12.24756500
 C   13.05042400  -11.53891700  -11.08203800
Cl   11.89528100  -15.47825300  -12.85589000
 C   13.50391200  -12.69648000  -10.46736400
Cl   13.66404700  -15.37047700  -10.32633800
 C   13.12805500  -13.89407000  -11.04237700
 C   12.32401300  -13.93999000  -12.19279900
 N   13.21041800  -10.21631300  -10.80227300
 C   12.53523100   -9.52401800  -11.76374300
 N   11.94225000  -10.30040400  -12.63888500
 C   12.54347700   -8.04791700  -11.76466900
 N   11.88069700   -7.49084800  -12.79250100
 C   13.68284600   -6.07225600  -13.73043400
 O   14.36917000   -7.09976000  -13.60573900
 O   14.01563100   -4.98492700  -14.22866000
 O   13.05660900   -7.42721800  -10.82980200
 C   12.20289200   -6.14710200  -13.18022100
 H   11.25336700  -12.83846600  -13.69105000
 H   14.12137200  -12.67615600   -9.58560500
 H   11.63809500   -8.13459800  -13.53524400
 H   12.17041500   -5.49741900  -12.30325500
 H   11.51423700   -5.78419700  -13.93939500
 H   13.73875600   -9.77693100  -10.06390200
24
-54.94901918824
 C   12.25513000   -8.31473100   -7.02032900
 C   11.85131000   -8.43117900   -8.34759900
 C   11.41796000   -9.68442900   -8.85872400
Cl   12.71502400   -9.36074500   -4.59133100
 C   11.38231900  -10.82534300   -8.07113900
Cl   11.77310700  -12.07302200   -5.72895000
 C   11.78979300  -10.68806500   -6.75916900
 C   12.21793700   -9.45346400   -6.24482600
 N   11.09548200   -9.44485500  -10.15932000
 C   11.34295600   -8.12418400  -10.39169100
 N   11.78995900   -7.48876800   -9.33487800
 C   11.13302800   -7.55346500  -11.73700000
 N   11.47414000   -6.25875200  -11.85078200
 C   13.08674800   -6.39545300  -13.72721300
 O   13.54884000   -7.35000000  -13.08105000
 O   13.52298200   -5.89902200  -14.77811100
 O   10.60800000   -8.23080500  -12.62480800
 C   11.77369500   -5.73004000  -13.15091100
 H   12.58616800   -7.37260400   -6.61926300
 H   11.05716300  -11.77823100   -8.45248200
 H   12.01396000   -5.89572800  -11.07515400
 H   11.89888300   -4.65053300  -13.11468200
 H   10.97089700   -5.99150200  -13.84331900
 H   10.76921200  -10.08535400  -10.86675500
24
-54.94901256071
 C   14.80956100   -2.00580600   -9.06065800
 C   14.51677800   -3.33663000   -9.34611300
 C   15.08187700   -4.37972600   -8.56368500
Cl   16.05733100   -0.11984100   -7.61453300
 C   15.93358600   -4.12022100   -7.50033000
Cl   17.26869800   -2.40558000   -5.92750800
 C   16.21173600   -2.79402400   -7.23585200
 C   15.65872300   -1.75668400   -8.00414200
 N   14.59303000   -5.53110700   -9.10082400
 C   13.79546900   -5.17220800  -10.14711100
 N   13.72366000   -3.87401500  -10.32017200
 C   13.13723900   -6.20504300  -10.97166000
 N   12.40921900   -5.71847500  -11.98996300
 C   13.42909600   -6.93002800  -13.89850000
 O   13.26245100   -7.54005700  -14.96691300
 O   14.49935100   -6.57868100  -13.37594400
 O   13.21425200   -7.39572400  -10.65683600
 C   12.10965800   -6.56748900  -13.10724700
 H   14.39092900   -1.20524400   -9.64530200
 H   16.36550700   -4.90556800   -6.90377600
 H   12.56320200   -4.73766700  -12.18719000
 H   11.40266400   -6.08878100  -13.78073800
 H   11.70134800   -7.51349200  -12.74587600
 H   14.77798300   -6.48810200   -8.84128100
24
-54.9485218915
 C   13.86506500   -8.06913500  -17.27645900
 C   13.86926300   -7.44442700  -16.03330000
 C   15.01737900   -6.74329700  -15.58116700
Cl   15.06392900   -8.74553100  -19.58004100
 C   16.17081900   -6.66284700  -16.34581800
Cl   17.56094300   -7.24073400  -18.56402100
 C   16.14901700   -7.29707700  -17.57206200
 C   15.01571800   -7.98488300  -18.03064100
 N   14.66718300   -6.22977600  -14.36949400
 C   13.40260900   -6.66864800  -14.10733000
 N   12.88874900   -7.37669000  -15.08031000
 C   12.72284300   -6.27152500  -12.84706300
 N   11.98845900   -7.20669300  -12.21697000
 C   13.86564700   -8.81705100  -12.03577300
 O   14.56753600   -7.78755100  -12.01726100
 O   14.23688100   -9.99201000  -11.90572400
 O   12.75834500   -5.09637800  -12.47532400
 C   12.33144500   -8.59978800  -12.32494000
 H   12.98996900   -8.59159300  -17.62190800
 H   17.04696200   -6.13490700  -16.00955100
 H   11.70524800   -6.92222700  -11.28596400
 H   12.15767000   -8.96510900  -13.33766600
 H   11.75486100   -9.18820400  -11.61477400
 H   15.25044200   -5.81826100  -13.65871700
