38
-108.72608114158
 C    4.24896900   31.51066500   19.63425000
 F    3.80138400   32.87431500   25.81636600
 N    2.66211100   32.90039500   20.75852000
 O    4.70798900   33.75540500   20.30438900
 C    3.31076100   30.50873700   19.61356300
 C    2.03827100   30.69759000   20.16294700
 C    1.75426900   31.90760800   20.72128300
 C    3.93965200   32.78211500   20.23345000
 C    2.27427100   34.16063100   21.38330700
 C    2.01165700   33.97003300   22.85264200
 C    0.76127200   34.22874800   23.39763100
 C    0.52611200   34.04228800   24.74948200
 C    1.55015200   33.58500800   25.55621400
 C    2.80103000   33.32094700   25.01745700
 C    3.03818600   33.51258300   23.67196100
 F    1.33160200   33.39448400   26.88049200
 C    2.49428900   32.60044800   16.85985500
 C    3.29094200   33.67314300   17.28619800
 C    4.64172400   33.73976200   17.01334200
 C    5.19829700   32.67475600   16.30956200
 C    4.39413700   31.62779300   15.84657200
 C    3.03829000   31.57382600   16.11219900
 N    1.22495300   32.82520600   17.36278200
 N    2.47462500   34.51111000   18.01539900
 O    6.52992300   32.58217700   15.99208300
 C    7.49230400   33.10115700   16.88937000
 C    7.64367700   32.23191300   18.16234500
 C    8.82646100   32.72401800   18.96009300
 C   10.02739700   32.02787900   18.92334900
 C   11.12770400   32.48635600   19.62680700
 C   11.03773500   33.64690400   20.37650300
 C    9.84359400   34.34637700   20.41785800
 C    8.74441500   33.89070000   19.71080300
 C    1.21442800   33.97722000   18.09757600
 O    0.27609400   34.43256400   18.73944000
 N    6.42595300   32.25042200   18.94021400
 C    5.55298200   31.23517900   18.96144600
 O    5.77734000   30.13826800   18.44801700
38
-108.72436352408
 C    6.12203900   28.18574100   14.50014900
 F    3.89430700   34.02775600   14.73277400
 N    5.18264500   29.36983100   12.64821000
 O    7.06680100   30.18487900   13.60126700
 C    5.07801800   27.29698100   14.42194100
 C    4.07274500   27.44457300   13.46013000
 C    4.16850000   28.48742900   12.58792600
 C    6.19245800   29.30536000   13.59728100
 C    5.20566500   30.46980800   11.68935700
 C    4.23528200   31.54563200   12.10371000
 C    3.05287700   31.75595700   11.40733700
 C    2.15448800   32.72732400   11.81605600
 C    2.44159500   33.48441800   12.93517900
 C    3.62043700   33.27771500   13.63705200
 C    4.51941500   32.31489800   13.22693400
 F    1.56737600   34.43497200   13.34762600
 C    8.47712300   28.58967000   11.03713800
 C    8.19664300   27.54474300   11.92947100
 C    8.95733900   27.32115200   13.05932600
 C   10.00568700   28.20486500   13.30241300
 C   10.30674100   29.22187100   12.38907100
 C    9.55414600   29.42831600   11.24824700
 N    7.49095300   28.55963000   10.06792100
 N    7.06244500   26.91411200   11.46042000
 O   10.82915500   28.14693400   14.39767300
 C   10.34332400   27.62377700   15.61426800
 C    9.37554000   28.58732000   16.35553900
 C   10.07533400   29.88271100   16.67546900
 C   10.64285900   30.05823200   17.93164900
 C   11.33393800   31.21734900   18.23660900
 C   11.46757200   32.21510100   17.28586900
 C   10.90750200   32.04563000   16.03152100
 C   10.21679100   30.88566200   15.72460800
 C    6.60843100   27.54956600   10.33157600
 O    5.59055800   27.28468900    9.70654300
 N    8.17044500   28.81054000   15.58800800
 C    7.19683700   27.89835900   15.49375000
 O    7.18316200   26.85716200   16.15743500
