13
-39.43169064613
 O   21.97557400   64.04937200   16.99237900
 C   18.87868100   64.70476100   14.11807100
 C   18.26280800   65.79882300   13.54015400
 C   17.86664100   66.87314200   14.32899900
 C   18.09248000   66.83269300   15.70176200
 C   18.71199300   65.73728400   16.26846200
 C   19.10456200   64.65759300   15.48687600
 O   17.25890800   67.97191200   13.81108500
 C   19.81581600   63.48317200   16.10772600
 C   21.29492200   63.78111400   16.01826700
 C   21.87066000   63.74854000   14.58121600
 O   21.86013000   62.63349400   14.02523200
 O   22.27523500   64.83312900   14.12644200
13
-39.43168814089
 O   20.82109800   64.21360600   18.56993700
 C   19.36998100   64.71896100   14.59403300
 C   18.96571900   65.77300100   13.79676900
 C   18.10391600   66.73957400   14.30335300
 C   17.65314400   66.63272500   15.61576900
 C   18.06689300   65.57888100   16.40523300
 C   18.92157400   64.60536400   15.90299000
 O   17.67633300   67.79430300   13.56205000
 C   19.39810800   63.47764700   16.78122300
 C   20.70560800   63.92790900   17.39119500
 C   21.88366400   64.02014700   16.39093600
 O   22.33390900   65.15790800   16.16954100
 O   22.25363200   62.93435800   15.90350400
13
-39.43168500301
 O   18.90502400   62.79094600   18.30934800
 C   18.89486300   64.54810200   14.42099900
 C   18.11489000   65.46056900   13.73597800
 C   17.71633800   66.64029800   14.35482700
 C   18.11129300   66.89149500   15.66554900
 C   18.88662200   65.97175500   16.34228300
 C   19.29547800   64.79491200   15.72699300
 O   16.95173800   67.56985300   13.72548400
 C   20.11137900   63.77894600   16.48390400
 C   19.12580600   62.82051900   17.11132500
 C   18.39393400   61.89931000   16.10544100
 O   19.11450400   61.06937800   15.51835400
 O   17.17052800   62.08464200   15.97950500
13
-39.43168388803
 O   19.13222700   63.92991000   18.87852400
 C   18.52432300   64.60775000   14.73582500
 C   17.83596500   65.52465900   13.96403400
 C   17.93568200   66.88354700   14.24124000
 C   18.73464500   67.30830700   15.29891900
 C   19.41369800   66.38415100   16.06676600
 C   19.32477700   65.02531400   15.79037700
 O   17.28121600   67.82505800   13.51334400
 C   20.03775000   64.01869200   16.65642700
 C   19.04540000   63.58905200   17.71183200
 C   17.89150800   62.69969000   17.18818900
 O   16.74803100   63.18508700   17.24383900
 O   18.23616100   61.58231900   16.75644400
13
-39.43141663082
 O   19.12336900   61.36655500   15.43813800
 C   19.11368400   64.79960500   14.09203800
 C   18.34752800   65.83675400   13.59366200
 C   17.73664100   66.73098500   14.46499000
 C   17.90811800   66.57242500   15.83764400
 C   18.67685600   65.53524500   16.32482800
 C   19.29596100   64.64194600   15.45879800
 O   16.97293000   67.76601700   14.02899800
 C   20.10451300   63.48679500   15.99115200
 C   19.13523100   62.34151700   16.16908500
 C   18.13132400   62.52462600   17.33293300
 O   18.63219000   62.53421300   18.47395100
 O   16.93603600   62.65005100   17.01325200
13
-39.43141040367
 O   18.87929100   61.54239500   15.94669200
 C   19.02695400   64.76456000   14.16645700
 C   18.32507800   65.75624400   13.50708500
 C   17.74490300   66.79379700   14.22746900
 C   17.88048000   66.82271700   15.61286500
 C   18.58467200   65.82887000   16.26131000
 C   19.17448300   64.79366100   15.54614800
 O   17.04572100   67.79321500   13.62997300
 C   19.91254600   63.68787900   16.25584900
 C   18.89159800   62.60941800   16.53501900
 C   17.83841600   62.98682100   17.60465800
 O   16.67079100   63.12923200   17.20124500
 O   18.27801700   63.11668400   18.76343600
13
-39.43140414062
 O   21.49187700   62.29731600   14.74031000
 C   18.57050000   64.45628800   14.11251500
 C   18.12096300   65.65615800   13.59317700
 C   18.16060300   66.80825800   14.36951500
 C   18.65418400   66.73925500   15.66979600
 C   19.09865300   65.53650700   16.17933700
 C   19.05335100   64.37906500   15.41121000
 O   17.73108400   68.01164100   13.90913300
 C   19.57188700   63.07252200   15.95541100
 C   21.04115700   63.02517200   15.60733700
 C   21.92432500   64.00779800   16.41430500
 O   21.99761700   63.78250800   17.63751300
 O   22.46102700   64.92238900   15.76417300
13
-39.43139983555
 O   21.96896700   62.87255000   15.06674600
 C   18.81487100   64.57967600   14.13845100
 C   18.22283500   65.69977900   13.58535500
 C   17.97590400   66.81710500   14.37437900
 C   18.32889000   66.79375500   15.72103700
 C   18.91810400   65.67015900   16.26364600
 C   19.15934500   64.54650400   15.48239100
 O   17.39594100   67.94234300   13.88208900
 C   19.83445200   63.33195700   16.06547300
 C   21.31909300   63.52744100   15.86288200
 C   21.94096300   64.65412500   16.72219400
 O   22.34980100   65.65197800   16.10225800
 O   21.95841900   64.44456100   17.95022200
13
-39.43071916587
 O   21.67801700   63.98472900   14.75988800
 C   18.72514000   64.70916600   14.00026300
 C   18.17459800   65.86898200   13.48824600
 C   17.88503400   66.93401900   14.33356000
 C   18.15729700   66.81930200   15.69338200
 C   18.71267200   65.65782300   16.19252700
 C   18.99717400   64.58547400   15.35642800
 O   17.33922000   68.09485000   13.88321400
 C   19.63923200   63.33924600   15.88599200
 C   21.09890600   63.21153700   15.49979400
 C   21.78735100   61.97366900   16.12340000
 O   22.31292900   62.14505100   17.23783700
 O   21.71968600   60.93010700   15.44798600
13
-39.43071249607
 O   17.79673600   62.57276300   16.44506100
 C   18.91966800   64.73018900   14.38806100
 C   18.25318800   65.65795100   13.60997000
 C   17.77285100   66.83000500   14.18296100
 C   17.97006600   67.05565300   15.54186000
 C   18.63355600   66.11946800   16.30987900
 C   19.12308300   64.94884700   15.74420000
 O   17.11309200   67.77632400   13.46375900
 C   19.80541500   63.91029800   16.58167600
 C   18.92512400   62.71322200   16.87840000
 C   19.61575800   61.65947600   17.77749500
 O   20.26309300   60.78558900   17.17181900
 O   19.47194400   61.80955900   19.00403700
13
-39.43071239199
 O   21.82663600   64.23461900   15.01852000
 C   18.78133400   64.65447000   14.16071800
 C   18.16519700   65.73190800   13.55231800
 C   17.85467100   66.86586300   14.29418500
 C   18.17152200   66.90306200   15.64868000
 C   18.79107400   65.82247100   16.24430000
 C   19.09788600   64.68211400   15.51243700
 O   17.24616900   67.95101800   13.74624200
 C   19.80983200   63.52542100   16.14572900
 C   21.28127500   63.46672300   15.78920500
 C   22.03316800   62.31215800   16.49370700
 O   22.04673700   61.22838100   15.88210200
 O   22.52275800   62.58374100   17.60503800
13
-39.43069716214
 O   17.78222900   62.42710100   16.20000300
 C   18.85559400   64.69898200   14.23665700
 C   18.17961500   65.71171400   13.58252000
 C   17.79092600   66.85105800   14.27788800
 C   18.08708700   66.95725000   15.63340800
 C   18.75921400   65.93720200   16.27696400
 C   19.15910800   64.79899700   15.58795400
 O   17.12812700   67.87787200   13.68249500
 C   19.85211600   63.67167600   16.29134200
 C   18.94329000   62.48918000   16.55891300
 C   19.65012600   61.33804000   17.31470300
 O   19.57968900   61.36835800   18.55595600
 O   20.23657500   60.51331800   16.58910200
13
-39.43063689788
 O   17.73112200   62.84316100   16.96763400
 C   18.99099900   64.76860500   14.24352500
 C   18.30004200   65.76127600   13.57285100
 C   17.77789000   66.84124800   14.27446400
 C   17.95981100   66.91150400   15.65286100
 C   18.65296800   65.91598800   16.31075000
 C   19.18263800   64.83431700   15.61623800
 O   17.09135900   67.84391600   13.66511500
 C   19.89095700   63.73464300   16.34725100
 C   18.94367100   62.74152600   16.98911500
 C   19.67464100   61.57063200   17.68884700
 O   19.97389900   61.75702700   18.88234500
 O   19.90688600   60.57771900   16.97538700
13
-39.43062658193
 O   21.40226500   65.15202000   16.97235300
 C   19.19232400   64.90399900   14.33091900
 C   18.61394600   65.95389900   13.64155100
 C   17.78113000   66.84723300   14.30484600
 C   17.53743300   66.67221900   15.66403900
 C   18.12053100   65.62046400   16.34137100
 C   18.94964500   64.71853000   15.68466000
 O   17.18662500   67.89482900   13.67470500
 C   19.61865100   63.61074500   16.44044800
 C   20.92882300   64.03547600   17.07252000
 C   21.61581700   62.90025300   17.86878100
 O   22.42065500   62.20092000   17.22709800
 O   21.27142400   62.79375300   19.05993200
13
-39.43041832987
 O   21.85162000   63.99895400   16.26033000
 C   19.29747800   64.91991700   14.35511200
 C   18.75970300   66.02286700   13.71901100
 C   17.83074400   66.82127300   14.37672800
 C   17.45498700   66.50063700   15.67842700
 C   17.99862400   65.39796600   16.30575300
 C   18.91531600   64.58721500   15.64782500
 O   17.26838000   67.91313700   13.79671000
 C   19.53025200   63.39715200   16.34004500
 C   20.83486900   63.89859900   16.92490100
 C   20.76599100   64.28117600   18.41895500
 O   21.00401400   63.34063100   19.20194200
 O   20.46128200   65.45547900   18.68889000
13
-39.43034747452
 O   21.66698200   63.48505300   17.85613600
 C   19.22800200   64.91960900   14.29654800
 C   18.60324200   65.97640200   13.66063400
 C   17.81288300   66.85739700   14.38812600
 C   17.65022700   66.65916900   15.75580300
 C   18.28165100   65.60327400   16.37987500
 C   19.07541700   64.71755100   15.66064000
 O   17.17689500   67.91224200   13.81123800
 C   19.79653300   63.60544000   16.36350700
 C   21.12935900   64.06037900   16.92501900
 C   21.78058700   65.26575800   16.20782800
 O   21.61295700   66.37900900   16.73475900
 O   22.41123500   64.98309000   15.17177100
13
-39.43030007066
 O   22.20468100   63.76743800   15.22840400
 C   18.81994600   64.61429400   14.06997800
 C   18.15178800   65.71640500   13.56823500
 C   17.87629900   66.79930800   14.39436400
 C   18.27978900   66.76048400   15.72686500
 C   18.94289700   65.65511200   16.21945800
 C   19.21453900   64.56483800   15.39937900
 O   17.22514700   67.90616200   13.95236100
 C   19.95106900   63.36484400   15.94107100
 C   21.39236000   63.78802800   16.13751800
 C   21.77595000   64.16894100   17.58408500
 O   21.79335200   65.36693600   17.90749900
 O   22.02140300   63.16964400   18.29072700
13
-39.43009258622
 O   18.23572300   62.49400900   17.33198100
 C   19.00016500   64.70029300   14.21820400
 C   18.25088200   65.67613400   13.58801500
 C   17.72749500   66.73508100   14.32206900
 C   17.96783100   66.80169500   15.69155800
 C   18.71380600   65.82040000   16.31307100
 C   19.24707700   64.76481100   15.58353200
 O   16.98787900   67.72191100   13.75172900
 C   20.03243000   63.66908100   16.26037200
 C   19.05088300   62.53537700   16.42917200
 C   19.09285900   61.41927900   15.33463100
 O   19.96096300   61.53501300   14.44868400
 O   18.24881100   60.51361300   15.45435000
13
-39.42959643764
 O   22.02372600   63.79395400   15.13713100
 C   18.85093800   64.61857400   14.08882500
 C   18.24087200   65.74258700   13.56203500
 C   17.92924200   66.81731900   14.38620300
 C   18.23870200   66.75071400   15.74261800
 C   18.84718800   65.62529600   16.25953700
 C   19.14911400   64.54180100   15.44168000
 O   17.33098300   67.94449700   13.91824000
 C   19.84033000   63.33238600   16.01841600
 C   21.30695400   63.69003600   16.11583000
 C   21.85184100   63.96500600   17.54983300
 O   23.05756000   63.71421100   17.72724100
 O   21.03188300   64.39625300   18.38172800
