48
-67.85851571837
 N   80.84565900   61.68035800    2.43745400
 C   79.82094700   61.53807400    3.28662300
 C   80.13556900   61.76642300    4.73083900
 C   79.48409400   60.99897900    5.69314000
 C   79.77362200   61.23772100    7.02467600
 N   80.62818900   62.16540800    7.42715600
 C   81.23482700   62.91885300    6.51734700
 C   82.19876000   63.96321200    7.02125500
 N   81.81401700   64.45692700    8.34134900
 C   80.61629300   65.29549800    8.30330900
 C   80.19954100   65.71976900    9.71099400
 N   79.73007400   64.78420500   10.55214600
 C   79.29249800   65.21492400   11.87501400
 C   77.84752300   65.70514300   11.86412300
 C   79.42045200   63.41110500   10.20175900
 C   80.38160300   62.38717800   10.81433800
 N   81.77020600   62.57354200   10.33555100
 C   82.41047700   61.29348100   10.00585400
 C   82.57984000   63.32480000   11.30540000
 O   80.34177500   66.89338300   10.05624500
 C   81.02107000   62.75147500    5.15252400
 O   78.68664000   61.23877800    2.92229000
 H   80.68656700   61.51925400    1.45565800
 H   81.78120800   61.86088200    2.75881400
 H   78.77502700   60.24695700    5.38709300
 H   79.29588600   60.66412000    7.80615500
 H   82.27179900   64.76852700    6.27761300
 H   83.18544900   63.50001700    7.11193000
 H   79.80883000   64.75183900    7.80874600
 H   80.78127700   66.22680800    7.74200400
 H   79.94199100   66.03382600   12.19218500
 H   79.39780600   64.37987100   12.56633400
 H   77.55465500   66.01255600   12.86363400
 H   77.75036900   66.56204000   11.20084200
 H   77.16706200   64.92655600   11.52900500
 H   79.43299400   63.28540300    9.12212200
 H   78.41323900   63.18874000   10.56115900
 H   80.03045500   61.40208800   10.51095200
 H   80.36832700   62.43666800   11.90315500
 H   83.43647600   61.46468000    9.69289500
 H   82.41355200   60.63908000   10.87465700
 H   81.87170500   60.82105200    9.18980100
 H   83.57348400   63.50025200   10.90228600
 H   82.11600400   64.28381400   11.51889600
 H   82.67602900   62.75950800   12.23037500
 H   81.51436900   63.39641700    4.44272200
 H   82.57675000   65.02206700    8.70806700
 H   81.72448000   63.16728700    9.44706200
48
-67.85847650785
 N   84.23729000   62.06556300    5.44386800
 C   83.48237300   61.95890500    6.54319700
 C   83.66351700   63.03739000    7.56498800
 C   83.56772000   62.71040600    8.91524800
 C   83.72138900   63.72116100    9.84594900
 N   83.94095100   64.98451200    9.50924800
 C   84.00375900   65.31533300    8.22301500
 C   84.23021000   66.76818500    7.90016800
 N   83.44538200   67.62782300    8.77991800
 C   82.01374400   67.49746500    8.53935500
 C   81.19311600   68.47633600    9.37300700
 N   81.21813700   68.35547700   10.70919100
 C   80.40658200   69.26037500   11.51052500
 C   81.23755600   70.27668200   12.28684400
 C   81.99722300   67.36635900   11.42690600
 C   83.43188500   67.84716300   11.72043100
 N   84.41224400   66.75266700   11.59506300
 C   84.31564500   65.82031900   12.72677600
 C   85.77712000   67.28234000   11.47952400
 O   80.51902000   69.33562900    8.80004300
 C   83.87448800   64.36613500    7.21468800
 O   82.68592800   61.04202500    6.72419800
 H   84.16175300   61.35483400    4.73363500
 H   84.92805500   62.78895400    5.34005200
 H   83.37601500   61.69021900    9.20525000
 H   83.66273500   63.51184900   10.90347800
 H   84.00877700   66.93321500    6.83470500
 H   85.28577500   67.00111400    8.06639700
 H   81.70431200   66.47256200    8.76537700
 H   81.74097600   67.69926900    7.48998500
 H   79.79671100   68.66818700   12.19767000
 H   79.74036500   69.78274700   10.82089100
 H   80.57016200   70.99323000   12.75719400
 H   81.82477600   69.79984400   13.06403200
 H   81.89556600   70.81938700   11.61383300
 H   82.04140800   66.45472200   10.83144200
 H   81.45965900   67.15243800   12.35120100
 H   83.50988200   68.26647200   12.72402600
 H   83.68331300   68.61958700   10.99698900
 H   85.01887400   65.00329100   12.59177000
 H   84.55486800   66.33601800   13.65468200
 H   83.31081700   65.41567800   12.79628200
 H   86.48245800   66.46247200   11.37731200
 H   85.85135200   67.92138400   10.60495900
 H   86.03320400   67.85964700   12.36535300
 H   83.90965400   64.66918500    6.18044200
 H   83.70776200   68.59234200    8.59307500
 H   84.20008700   66.20426500   10.70930000
48
-67.85788171866
 N   77.74979600   64.40888300   14.86903300
 C   77.75783200   63.68446700   13.74429600
 C   78.91417800   63.91405600   12.82328400
 C   79.54045400   65.14882500   12.68352200
 C   80.59016600   65.24416500   11.78413100
 N   81.02297000   64.23099600   11.05229800
 C   80.41773100   63.05290200   11.16424100
 C   80.90766500   61.93910600   10.27908900
 N   82.34288900   61.68351400   10.45180600
 C   82.73228700   60.45180400    9.76396100
 C   84.20092500   60.12639500   10.02380000
 N   85.14267100   60.82044000    9.36828300
 C   86.53685800   60.46347700    9.60506000
 C   86.99825200   59.35111700    8.66805700
 C   84.92517700   61.82704800    8.34521800
 C   85.09500300   63.24997100    8.89168800
 N   83.85664900   63.78565000    9.49562300
 C   82.97898000   64.39167000    8.48389300
 C   84.15967000   64.76148700   10.55016300
 O   84.48625300   59.25794800   10.84956300
 C   79.35861700   62.85307400   12.04083600
 O   76.88015800   62.86962300   13.46876700
 H   76.99459700   64.27828900   15.52312200
 H   78.50211200   65.03168700   15.10821500
 H   79.21112500   66.01663700   13.23015600
 H   81.10458700   66.18410000   11.63971400
 H   80.74739800   62.22100700    9.23375500
 H   80.30992900   61.04058800   10.48307300
 H   82.52290500   60.55908500    8.69810800
 H   82.16470700   59.58312300   10.12856100
 H   86.62308700   60.12049100   10.63810200
 H   87.15500600   61.35021000    9.46706800
 H   88.03932100   59.11249100    8.86373400
 H   86.40470600   58.45489700    8.83481600
 H   86.90084700   59.64516800    7.62621300
 H   83.94392000   61.70427800    7.89361600
 H   85.67159600   61.66023600    7.56648100
 H   85.40407300   63.91659600    8.08552900
 H   85.87970700   63.24103500    9.64840700
 H   82.03708800   64.66080400    8.95469300
 H   83.44444200   65.28490800    8.07317900
 H   82.78871300   63.69042700    7.67743500
 H   83.22720200   65.12016200   10.97350900
 H   84.74569400   64.29480900   11.33716300
 H   84.71735000   65.59866800   10.13615300
 H   78.86373500   61.89764900   12.12679900
 H   82.53905400   61.56949500   11.44496400
 H   83.29933500   62.98752500    9.93508100
48
-67.85740535245
 N   84.72481100   57.38599400    8.83083100
 C   84.49260800   58.51718800    9.50180200
 C   84.00513500   58.35257200   10.90672900
 C   82.94684600   59.13129500   11.37029400
 C   82.58201600   59.01129900   12.69920600
 N   83.22178300   58.23850200   13.56429400
 C   84.24469200   57.50937500   13.13378200
 C   85.06247400   56.80016400   14.18256700
 N   86.18793900   57.61669900   14.62782500
 C   85.79970900   58.85591400   15.27034300
 C   85.45545800   59.96860700   14.28580100
 N   84.80920200   61.05144400   14.72778800
 C   84.36722900   61.20956800   16.10443600
 C   82.94340900   60.69238300   16.30333400
 C   84.28522900   62.03003400   13.77470400
 C   85.36543800   62.85645200   13.06815400
 N   85.81494300   62.20137100   11.81785100
 C   87.16687300   62.62133700   11.42978400
 C   84.87214200   62.42440200   10.71331000
 O   85.82785800   59.86927300   13.10597500
 C   84.65058600   57.51097700   11.80028200
 O   84.68239300   59.63324900    9.02759000
 H   85.04884200   57.43845800    7.87762600
 H   84.52611000   56.48553800    9.23154500
 H   82.43631800   59.80548600   10.70116100
 H   81.75424100   59.57408900   13.10988700
 H   85.46761000   55.86661400   13.78853100
 H   84.43871600   56.58340100   15.05224400
 H   86.64929100   59.19293700   15.87553600
 H   84.95722400   58.64286800   15.92672800
 H   84.41576400   62.27281300   16.34809000
 H   85.05496000   60.68754700   16.76673000
 H   82.68826900   60.71460500   17.35829700
 H   82.22591900   61.30583100   15.76556200
 H   82.85304500   59.67092800   15.94192500
 H   83.63259800   62.69677200   14.33410200
 H   83.67820100   61.49706800   13.03636200
 H   86.22070400   62.97191200   13.73528000
 H   84.97694300   63.84488400   12.82051400
 H   87.44051200   62.14188100   10.49340800
 H   87.19608800   63.70121200   11.29786600
 H   87.88382300   62.33000700   12.19324000
 H   85.06344700   61.71880500    9.90647000
 H   83.84936200   62.27766000   11.04721300
 H   84.97970400   63.44016300   10.33906900
 H   85.49329900   56.91067500   11.49413600
 H   86.79138000   57.82645500   13.83599100
 H   85.83959900   61.17628500   12.05697600
48
-67.85630231061
 N   77.75548300   66.13004100   10.21463600
 C   78.97305400   65.91127200    9.70471200
 C   79.94484400   65.20664100   10.59611300
 C   79.56449500   64.28043200   11.56407800
 C   80.56121900   63.68152100   12.31580300
 N   81.84981200   63.94754600   12.17409800
 C   82.22209800   64.81972800   11.24465500
 C   83.69944000   65.10636800   11.13946600
 N   84.06497900   66.51304100   11.23970300
 C   83.44910900   67.22250300   12.35622900
 C   83.62189300   66.47697600   13.66772800
 N   84.85103600   66.21409800   14.10919700
 C   86.06849400   66.64326700   13.44221900
 C   86.59587900   67.95569700   14.01904000
 C   85.01202200   65.57015100   15.41057200
 C   84.69227400   64.07327300   15.36412300
 N   83.24887600   63.80944500   15.57918400
 C   82.91417600   63.78889600   17.00928900
 C   82.83087800   62.55930800   14.93067800
 O   82.61707900   66.11307900   14.29645900
 C   81.29959400   65.46496900   10.42787500
 O   79.29500700   66.27258000    8.57439700
 H   77.07335000   66.61048800    9.64983700
 H   77.52120800   65.87932000   11.15961200
 H   78.53302700   64.00812600   11.71471700
 H   80.31548200   62.95014500   13.07206100
 H   84.07295200   64.73826500   10.18118200
 H   84.20976100   64.56107300   11.93680900
 H   82.36349400   67.36725000   12.23173600
 H   83.91678200   68.20818100   12.42562100
 H   85.86772000   66.75248400   12.37803300
 H   86.81472000   65.85751600   13.57256400
 H   87.49450700   68.25050400   13.48587300
 H   85.85969300   68.74851300   13.91188300
 H   86.84081300   67.85905800   15.07351200
 H   84.36460400   66.07696400   16.13082500
 H   86.04621200   65.71225800   15.71664800
 H   85.25818600   63.54431500   16.13209400
 H   84.97835700   63.68134000   14.38717000
 H   81.83721200   63.72247300   17.13728100
 H   83.38095000   62.92644000   17.48154300
 H   83.26225500   64.69430200   17.49814800
 H   81.80430500   62.33196100   15.20360100
 H   82.88199900   62.66957400   13.84933200
 H   83.47083500   61.74234500   15.25680900
 H   81.60785300   66.16087500    9.66121100
 H   83.83739900   67.00071100   10.38033300
 H   82.74783500   64.61339200   15.12873100
48
-67.85545589536
 N   83.53310800   57.59850400   13.18160000
 C   82.58382500   57.78125800   12.25566900
 C   82.24272200   59.20260100   11.93710900
 C   80.93505500   59.51131000   11.57208400
 C   80.63019900   60.82518000   11.25726500
 N   81.52635200   61.79529400   11.27513600
 C   82.77969500   61.50741300   11.61370500
 C   83.73363500   62.67768800   11.58895800
 N   83.08526300   63.94270000   11.93180400
 C   82.71955200   64.01871800   13.34939500
 C   82.18855500   65.40333700   13.72028200
 N   83.03249800   66.44894800   13.66409600
 C   82.53130700   67.75254900   14.08401800
 C   82.64332800   67.94363000   15.59378800
 C   84.45984400   66.37109100   13.41993000
 C   84.87588400   66.93075400   12.05453200
 N   84.25340500   66.18357700   10.93669700
 C   85.22153300   65.87105300    9.87595300
 C   83.09233700   66.89710200   10.38513800
 O   81.00784100   65.53915000   14.03747900
 C   83.18681000   60.22369500   11.95671700
 O   82.01959500   56.84972700   11.68698700
 H   83.77588900   56.65593900   13.44233100
 H   83.92460800   58.36621800   13.69958000
 H   80.18971800   58.73280200   11.53851900
 H   79.62734500   61.11440800   10.97468000
 H   84.12635200   62.76705200   10.57156400
 H   84.56789700   62.49645500   12.26885500
 H   83.59015500   63.77540100   13.96401900
 H   81.92247200   63.31009700   13.60808500
 H   81.47969100   67.81479700   13.79567400
 H   83.09493700   68.52809300   13.56688700
 H   82.26158300   68.92175200   15.87092800
 H   82.05315800   67.18844500   16.10852200
 H   83.67488400   67.86857100   15.92813900
 H   84.79471900   65.34047900   13.50262800
 H   84.96890200   66.95317800   14.19191900
 H   85.96026800   66.84744900   11.98597700
 H   84.61231800   67.98505700   11.97204600
 H   84.73070600   65.31501100    9.08183400
 H   85.62962700   66.78875400    9.45714600
 H   86.03181600   65.26843400   10.27655000
 H   82.62156200   66.29524700    9.61238000
 H   82.36332500   67.08583800   11.16853000
 H   83.40418100   67.84364700    9.94787200
 H   84.21871300   60.02709900   12.19976900
 H   82.21801200   63.97423800   11.39332600
 H   83.87248400   65.25740500   11.33726900
