31
-90.70218679643
 C   19.20233200   29.93667500    7.08533800
 N   20.21515700   29.61242400    6.07115200
 C   19.63748900   28.74301500    5.03427100
 C   20.78910000   30.82493000    5.45829100
 C   21.58272800   31.68808500    6.45154900
 N   22.61070100   32.41982400    5.72440000
 S   23.97518700   32.81045200    6.58314700
 O   24.75684000   33.69086400    5.74119100
 O   23.63690300   33.33163800    7.89828100
 C   24.77733900   31.23244700    6.78414300
 C   24.49134600   30.19645300    5.91365600
 C   25.06831200   28.96195000    6.13156500
 C   25.95121800   28.77038700    7.19621400
 C   26.26348800   29.83974400    8.03376800
 C   25.66280300   31.07126800    7.83274900
 C   26.43838200   27.41330200    7.45254300
 C   27.67446000   27.06859100    8.00924000
 N   28.03400000   25.81619400    8.20289100
 C   27.16013400   24.83627100    7.89940200
 C   25.87163800   25.19089400    7.40679300
 N   25.57117900   26.44780100    7.15358700
 C   24.79710200   24.20231500    7.15170400
 O   25.02124100   23.01408500    6.92055600
 N   23.54164900   24.70313000    7.14606300
 C   23.14895300   25.94777200    7.66964100
 C   23.49400000   26.31688700    8.97179900
 C   23.10577200   27.55580300    9.44506300
 C   22.36003600   28.37798000    8.61485500
 N   21.98792800   28.01100900    7.39724400
 C   22.36532900   26.82977200    6.93083600
 N   27.52817200   23.57297700    8.10075500
31
-90.70164778509
 C    9.63676900   12.61481400   26.30908900
 N   11.07524800   12.82363500   26.52829900
 C   11.29689700   14.04014600   27.32649200
 C   11.71887600   11.67351700   27.19389100
 C   11.56430700   10.34024500   26.44282000
 N   12.42122400    9.31067900   26.99782400
 S   13.84741900    8.94815400   26.25270900
 O   14.58252900    8.11916000   27.18291800
 O   13.53645200    8.37949000   24.95903600
 C   14.67069700   10.51099600   25.99195100
 C   14.61801200   11.08444700   24.73519500
 C   15.10362500   12.36484100   24.56047700
 C   15.63006100   13.07388100   25.64244700
 C   15.72326300   12.45638100   26.89158400
 C   15.23877300   11.17165800   27.06688700
 C   15.99815200   14.47645500   25.44627400
 C   16.96293900   15.16618000   26.19233600
 N   17.21059100   16.44265000   26.00671700
 C   16.50244000   17.11513000   25.07641000
 C   15.53502100   16.40816900   24.29310500
 N   15.33029000   15.12128500   24.49122800
 C   14.78107900   17.07534300   23.21139200
 O   15.04466100   18.22808300   22.85277200
 N   13.81289800   16.39664800   22.55358600
 C   13.24862500   15.12783400   22.74817600
 C   13.11848200   14.26823500   21.65893300
 C   12.51415500   13.03420300   21.83993000
 C   12.04429400   12.70767900   23.09910000
 N   12.14131400   13.53627300   24.13349100
 C   12.72132800   14.71319800   23.97131800
 N   16.73297100   18.41660700   24.95143100
31
-90.70155346451
 C   13.21773800   22.33638100   11.62684800
 N   12.75925300   23.50611100   12.39498900
 C   13.26711900   23.43586300   13.77376000
 C   13.15645300   24.77482800   11.74464400
 C   12.20281000   25.18718600   10.62087500
 N   10.95279900   25.71799900   11.16168400
 S    9.64844500   24.71570300   11.31547100
 O   10.00001400   23.74698100   12.34293100
 O    8.50888700   25.55864100   11.58709100
 C    9.47019500   23.83951200    9.77289500
 C    8.90787600   24.48306100    8.68641600
 C    8.85662300   23.83219300    7.46579400
 C    9.38528100   22.54732500    7.33718400
 C    9.92675100   21.90990000    8.45619500
 C    9.96974800   22.55297700    9.67525600
 C    9.45605400   21.84666800    6.05438300
 C    8.60265500   22.03109900    4.96215400
 N    8.72025300   21.33437400    3.84981700
 C    9.71809700   20.43565700    3.75032100
 C   10.62791700   20.29260400    4.83763400
 N   10.45114300   20.96432700    5.95437600
 C   11.78916800   19.36896400    4.81082100
 O   11.82713200   18.37124600    4.08835900
 N   12.78082500   19.66161100    5.67603800
 C   12.97562500   20.90907000    6.30508300
 C   13.05402100   22.07408300    5.54313100
 C   13.25120600   23.28117200    6.18671900
 C   13.36792700   23.27857600    7.56831200
 N   13.31418600   22.17522200    8.29785300
 C   13.13312900   21.01811800    7.68522900
 N    9.83404100   19.73845800    2.62124500
31
-90.70149253357
 C    7.20238400   20.46448400   18.39020700
 N    8.51635900   20.88863900   17.87309600
 C   10.26992700   20.74148500   14.69543300
 C    9.66067700   20.49650700   18.72676200
 C    9.94534100   18.99978400   18.57823600
 N   10.09913000   18.68199600   17.15836200
 S   11.68477600   18.66845600   16.59172100
 O   12.55638200   18.07901900   17.59158600
 O   11.63556700   17.99282200   15.31293200
 C   12.10094400   20.39416100   16.40580700
 C   13.16213400   20.85945600   17.16650200
 C   13.55601200   22.17729900   17.06704800
 C   12.88890000   23.03836900   16.19090900
 C   11.81735000   22.55319900   15.44598700
 C   11.40699000   21.22567900   15.53332800
 C   13.33766600   24.42686700   16.06892600
 C   13.19822000   25.18078900   14.89529500
 N   13.63123100   26.41663600   14.79105600
 C   14.22978300   26.98160500   15.85876000
 C   14.38463300   26.21685500   17.05425100
 N   13.94340400   24.97199300   17.12483300
 C   15.03513000   26.77145600   18.26661700
 O   15.52007500   27.90308400   18.30137400
 N   15.02011900   25.89741500   19.29759200
 C   15.52812200   26.03174500   20.58354200
 C   15.39222200   24.96118800   21.46938200
 C   15.89204400   25.08663100   22.75126400
 C   16.51039500   26.27729800   23.10673100
 N   16.64438600   27.29815300   22.27431500
 C   16.16917100   27.18339300   21.04767000
 N   14.64378800   28.23856300   15.74510800
31
-90.70128605263
 C   26.53138100   24.40160000    7.98187500
 N   26.61508200   23.20476100    8.83326200
 C   27.50680000   23.44183000    9.97685700
 C   25.26065500   22.77863500    9.24457800
 C   25.25526700   21.54544400   10.15106800
 N   26.19143200   20.52350100    9.68695200
 S   26.06259300   19.91569700    8.14598500
 O   26.62362400   20.92719100    7.26590700
 O   26.74201400   18.64127600    8.16392700
 C   24.33247400   19.70873400    7.76556300
 C   23.61551800   18.74676500    8.45294600
 C   22.26982200   18.58170500    8.17991300
 C   21.64423700   19.38082900    7.22022300
 C   22.39140400   20.34582800    6.53970200
 C   23.73597700   20.50997200    6.80916000
 C   20.22208300   19.23080100    6.90891600
 C   19.50936300   18.03507500    7.07475800
 N   18.23361400   17.92398800    6.78130200
 C   17.58502100   19.00546100    6.30351700
 C   18.30960200   20.21953200    6.10917100
 N   19.59383000   20.29767200    6.41187600
 C   17.67181700   21.44675300    5.57019600
 O   16.49277700   21.48296200    5.21566700
 N   18.53297900   22.48666800    5.52733700
 C   18.33495000   23.79118000    5.09303100
 C   17.13232200   24.26736900    4.57354300
 C   17.06485600   25.59177000    4.17562300
 C   18.18951300   26.39251700    4.30776300
 N   19.33658900   25.94704300    4.79971900
 C   19.40577700   24.68697400    5.17932200
 N   16.28990100   18.88612500    6.03510100
31
-90.7008574352
 C   21.65889500   20.36760200    3.29902200
 N   20.19295400   20.25978300    3.35587300
 C   19.67908800   19.67122100    2.10950100
 C   19.74396000   19.47953100    4.53258400
 C   19.80196300   20.26697400    5.84669500
 N   18.74820400   21.24749400    6.00824500
 S   18.90126800   22.77214800    5.41896700
 O   19.21319700   22.72751900    3.98922700
 O   17.68773800   23.47279800    5.76157400
 C   20.31293400   23.41722000    6.28291200
 C   21.41457900   23.86776500    5.57938500
 C   22.50345200   24.36529200    6.27281200
 C   22.48511600   24.41031100    7.66798400
 C   21.36112500   23.94244100    8.35548700
 C   20.27257700   23.44716400    7.66541600
 C   23.62085400   24.93289800    8.42960700
 C   24.50949200   25.89848900    7.93561700
 N   25.51900800   26.35804100    8.63938000
 C   25.70870400   25.87800600    9.88501400
 C   24.79509800   24.91183800   10.40307200
 N   23.78568000   24.47293800    9.67062900
 C   24.92768100   24.34733600   11.76864800
 O   25.80005400   24.71221800   12.55783400
 N   23.99332100   23.40367500   12.01947900
 C   23.77412900   22.65057200   13.16569100
 C   24.53193600   22.76322800   14.33030400
 C   24.21066400   21.95393600   15.40670700
 C   23.15354900   21.06428100   15.28775100
 N   22.42897500   20.95037400   14.18388100
 C   22.73006600   21.71961600   13.15707500
 N   26.74949400   26.33245100   10.57387700
31
-90.70067489869
 C   21.38106300    7.16543000    3.95388600
 N   19.93552400    7.41852300    4.02895000
 C   19.29957500    6.52053300    5.00502400
 C   19.61719600    8.82595800    4.35072100
 C   20.26029500    9.83134200    3.39332400
 N   20.14565200    9.40163400    2.00121000
 S   18.65184000    9.07763100    1.35317700
 O   18.80859300    9.17803900   -0.07907700
 O   18.26334800    7.77213200    1.86162100
 C   17.50044300   10.30085400    1.95261000
 C   16.41679700    9.91273300    2.71789600
 C   15.53155300   10.87189500    3.17537900
 C   15.73432500   12.21845100    2.86682000
 C   16.84066300   12.58553600    2.09522600
 C   17.72375400   11.62863600    1.63467500
 C   14.81258200   13.25638600    3.33079500
 C   13.45786400   13.02473300    3.60875000
 N   12.64610300   13.97352100    4.01603900
 C   13.13703600   15.21931000    4.17434300
 C   14.50947200   15.46787900    3.87130000
 N   15.30020100   14.49134300    3.46030500
 C   15.11808700   16.81469500    4.00255200
 O   14.46999700   17.80798800    4.33434500
 N   16.43985100   16.80328900    3.72117400
 C   17.35850700   17.84507500    3.71952800
 C   17.03649900   19.16995000    4.00996200
 C   18.04550200   20.11710300    3.97215400
 C   19.33324100   19.71604200    3.64938500
 N   19.64773800   18.45865900    3.37277700
 C   18.69032500   17.55370000    3.40657400
 N   12.30991700   16.16190000    4.61114700
