40
-117.98348952798
 C   34.72312500  -53.41777900   -7.91452700
 C   34.54998400  -54.18789200   -9.17855000
 C   33.44605200  -55.00870000   -9.37849200
 N   33.23728100  -55.69558400  -10.49600600
 C   34.16322400  -55.57724100  -11.41922000
Cl   33.92987000  -56.47475500  -12.86575400
 N   35.25413000  -54.84248600  -11.36118600
 C   35.45374400  -54.12165800  -10.25043200
 C   36.63134700  -53.24241500  -10.26889000
 C   36.77021600  -52.32844900  -11.31102400
 C   37.87983300  -51.51443300  -11.38340400
 C   37.61676900  -53.31043700   -9.28897900
 C   38.75388200  -52.53265800   -9.39089100
 C   38.90453600  -51.63955400  -10.44811900
 N   40.12611000  -50.97060400  -10.66194700
 C   40.84007900  -50.36886300   -9.68269500
 O   42.01207000  -50.02785200   -9.85096800
 C   40.14348400  -50.11133200   -8.39607500
 C   40.80247500  -50.41089900   -7.20946400
 C   40.22712000  -50.16356700   -5.98068600
 C   38.96863100  -49.57093900   -5.92324200
 O   38.33909200  -49.30131200   -4.75714900
 C   38.31705200  -49.22326000   -7.10168900
 C   38.89051200  -49.48361800   -8.33688100
 O   38.27955500  -49.12045900   -9.48830100
 C   40.74281500  -51.13843400  -11.98555400
 C   40.29205800  -52.44188500  -12.58000700
 C   39.48933400  -52.47662100  -13.71159500
 C   38.85219400  -53.64645300  -14.08620100
 C   40.54101400  -53.62809600  -11.89696000
 C   39.90925300  -54.79586000  -12.27208600
 C   39.01775400  -54.80242900  -13.33940100
 C   38.20680900  -56.04091600  -13.62031200
 N   37.47232600  -56.42041700  -12.42148300
 C   37.83968000  -57.45859200  -11.69390600
 O   38.72664700  -58.26048900  -11.92936100
 C   37.00414300  -57.64368200  -10.39300400
 F   35.70870900  -57.91380800  -10.63801200
 F   37.47065800  -58.64844700   -9.64675600
 F   37.01276000  -56.54885500   -9.60909100
40
-117.98287572778
 C   42.48574300  -49.38657800   -2.28157600
 C   41.21330300  -50.13689000   -2.08377400
 C   40.78344800  -50.50261700   -0.81281700
 N   39.65905700  -51.17143900   -0.58755000
 C   38.93947700  -51.45840400   -1.64719500
Cl   37.48413500  -52.33953800   -1.37271300
 N   39.21328800  -51.15051200   -2.89759500
 C   40.35775800  -50.49889600   -3.13611300
 C   40.64615100  -50.21527100   -4.55054900
 C   39.70635400  -49.55197900   -5.33382300
 C   39.91474500  -49.38852200   -6.68808400
 C   41.82641600  -50.66416600   -5.13785900
 C   42.02064100  -50.53081300   -6.49813800
 C   41.05309000  -49.91952900   -7.28690600
 N   41.14843000  -49.99489300   -8.69733100
 C   40.93497500  -48.94085200   -9.51423300
 O   40.71246600  -49.07764000  -10.71826200
 C   41.00510100  -47.59359400   -8.89067700
 C   40.01045000  -46.67169800   -9.19427300
 C   40.02856100  -45.39216700   -8.67991800
 C   41.08414900  -45.00121400   -7.86100100
 O   41.17382200  -43.76302300   -7.32347100
 C   42.10681800  -45.90035300   -7.57992300
 C   42.08038100  -47.19145300   -8.08569400
 O   43.08641600  -48.06203800   -7.84237400
 C   41.06006000  -51.36356200   -9.22719400
 C   40.03723300  -52.08981200   -8.39743000
 C   38.70307400  -51.70375200   -8.47229100
 C   37.80207300  -52.11233100   -7.50925100
 C   40.42618400  -52.97336300   -7.39983600
 C   39.52563200  -53.37775500   -6.43071300
 C   38.21986900  -52.91219500   -6.45121000
 C   37.27915600  -53.16700400   -5.30245200
 N   37.05466600  -51.90895200   -4.60109100
 C   35.91646700  -51.25670200   -4.71856500
 O   34.91571500  -51.59854800   -5.32890300
 C   35.88146900  -49.86562000   -4.02045100
 F   36.73343800  -49.71732000   -2.99255500
 F   36.19404700  -48.88951600   -4.89626600
 F   34.66167000  -49.58304200   -3.54838200
