17
-45.96746311321
 C   28.93862000   16.00108200   -0.69576900
 C   27.92567800   15.59362000    0.17066500
 C   26.84095500   14.88457900   -0.31121200
 C   29.42379900   18.85670400    2.39782700
 C   26.74598800   14.58167600   -1.65952100
 C   27.74408900   14.99195400   -2.52896500
 C   28.83542500   15.69310100   -2.05311700
 C   31.12984200   18.29962900    1.29715700
 N   32.33405700   18.14978600    0.77950500
 N   30.75113200   19.09095400    2.28466400
 C   30.11086300   16.72732900   -0.20227300
 N   28.66991900   19.43510200    3.34647900
 C   32.46287900   17.29876900   -0.22434400
 C   33.82684100   17.12786800   -0.80459700
 N   28.93608300   17.96171700    1.53350400
 N   30.01232200   17.59223300    0.82616200
 C   31.37649400   16.57634200   -0.73876600
17
-45.96745410231
 C   28.97051200   15.94829200   -0.63834900
 C   27.85650100   15.73554400    0.17173700
 C   26.74877300   15.07538300   -0.32688000
 C   30.81016400   16.10126100    3.17673200
 C   26.73952400   14.61138000   -1.63197500
 C   27.84684300   14.81100000   -2.44105000
 C   28.95398800   15.47744500   -1.95209900
 C   31.65864800   17.24839200    1.62860100
 N   32.39049900   18.03729500    0.86526800
 N   31.82660700   16.95119700    2.90456900
 C   30.14261700   16.67058600   -0.13952900
 N   30.59324600   15.60990800    4.40760800
 C   32.02762600   18.16679700   -0.39970400
 C   32.85555900   19.06171100   -1.25988200
 N   30.00597800   15.83849500    2.14238200
 N   30.52982200   16.56648000    1.14683700
 C   30.91512900   17.49944900   -0.93235900
17
-45.96744358079
 C   28.99118600   15.95873000   -0.78981100
 C   27.84968400   16.02168700    0.01046600
 C   26.68639900   15.38744800   -0.38176800
 C   32.08323200   17.91614800   -2.92472900
 C   26.64682600   14.67611400   -1.57044600
 C   27.77605700   14.60942200   -2.36995300
 C   28.94081500   15.24892000   -1.98812100
 C   32.25078000   17.80938600   -0.82869100
 N   32.60399600   17.89666900    0.43958700
 N   32.87958900   18.27648000   -1.89246900
 C   30.22349600   16.61782100   -0.35199200
 N   32.41042000   18.15569300   -4.20462900
 C   31.79523700   17.35464700    1.33465200
 C   32.20084200   17.44638700    2.76754000
 N   30.97900500   17.24914900   -2.57566900
 N   31.07256600   17.16762200   -1.24166700
 C   30.60088100   16.71357900    0.97480100
17
-45.96691313391
 C   29.03360100   15.89199500   -0.74162100
 C   27.88763400   15.84719800    0.05385700
 C   26.74060700   15.23157900   -0.40906000
 C   33.16264700   15.08337200   -1.24862800
 C   26.71711600   14.66049300   -1.67151700
 C   27.85084300   14.70038400   -2.46632800
 C   29.00497900   15.30698100   -2.00635200
 C   32.62269600   16.74908700   -0.07931800
 N   32.57573100   17.81831400    0.68869500
 N   33.68349700   16.09399500   -0.51635800
 C   30.23680400   16.56393000   -0.24589500
 N   33.93025900   14.21134600   -1.92145300
 C   31.38013100   18.29108200    1.00749100
 C   31.34667600   19.50561100    1.87407400
 N   31.82722300   15.05610900   -1.29938800
 N   31.46534000   16.11489600   -0.56302000
 C   30.19742300   17.68849900    0.56090700
17
-45.96479702282
 C   28.99462800   15.93056300   -0.78360000
 C   27.92387700   15.75340000    0.10145200
 C   26.75950300   15.13325500   -0.30566400
 C   32.66056700   16.93288700   -2.76051200
 C   26.62615700   14.67049300   -1.60491500
 C   27.67485600   14.83751600   -2.49223400
 C   28.84350200   15.45775100   -2.09050700
 C   32.44815900   17.44344800   -0.73019900
 N   32.60760900   17.87786500    0.50121400
 N   33.30649400   17.52115300   -1.73056700
 C   30.22772000   16.59173500   -0.34292600
 N   33.20433200   16.80680100   -3.97393600
 C   31.60239200   17.68686300    1.34254700
 C   31.79132000   18.17906700    2.73918200
 N   31.43498000   16.48431900   -2.46755000
 N   31.27467100   16.79931100   -1.17354200
 C   30.41757000   17.05732700    0.95282700
