33
-95.64802719787
 C   16.59479600  -18.73290800  -17.25501500
 C   17.14515200  -20.14674700  -17.41572600
 C   16.83439300  -21.04016100  -16.21885100
 N   17.60954200  -20.71737000  -14.99098500
 C   16.96581700  -21.32966600  -13.80327100
 C   15.53958000  -20.89782700  -13.56628600
 C   14.61234700  -21.84038100  -13.13609400
 C   13.30523400  -21.47153700  -12.86969800
 C   12.90622500  -20.15633700  -13.03955200
 C   13.82285800  -19.21249300  -13.47224200
 C   15.13371000  -19.57749200  -13.73013500
 C   19.01054500  -21.20484400  -15.11811400
 C   19.90777200  -20.82806300  -13.96812500
 C   20.08664200  -21.69242400  -12.89250200
 C   20.96221600  -21.38005700  -11.86942300
 C   21.69034200  -20.19766100  -11.91641500
 N   22.63456500  -19.88891100  -10.90851200
 C   22.42333200  -19.65896300   -9.59824000
 O   23.36366600  -19.43405900   -8.84467300
 C   20.97865200  -19.64168700   -9.11614800
 C   20.11600000  -18.83880600  -10.04286200
 C   18.91809000  -19.34740500  -10.53548900
 C   18.21879500  -18.66092900  -11.51062700
 C   18.73177900  -17.47120300  -11.99389800
 C   19.87137200  -16.90533500  -11.45785000
 C   20.55378200  -17.58572100  -10.46641200
 S   17.96234200  -16.72857100  -13.42329500
 O   18.79067400  -15.64632200  -13.92045800
 O   17.76560800  -17.81735700  -14.38482600
 C   16.34224900  -16.08685200  -12.92876700
 C   16.57402400  -15.04378900  -11.86003400
 C   21.53038300  -19.33667600  -12.99760800
 C   20.63421500  -19.64331400  -14.00423500
33
-95.64657027038
 C   17.99776600   -5.65427400  -16.18250400
 C   17.48260400   -4.91826700  -14.94917300
 C   18.57981200   -4.38957800  -14.02626400
 N   19.46026500   -3.33464300  -14.59872800
 C   18.67225000   -2.22740500  -15.20431400
 C   19.52060900   -1.07648200  -15.68191000
 C   19.30231300    0.20442300  -15.18911400
 C   20.05549600    1.27097000  -15.64954800
 C   21.04069500    1.06547300  -16.60055200
 C   21.26613100   -0.20990900  -17.09377400
 C   20.50722500   -1.27551500  -16.64325600
 C   20.35754100   -2.79952700  -13.53660000
 C   21.45097000   -3.74305700  -13.11252500
 C   21.29542900   -4.59124900  -12.02186900
 C   22.34213600   -5.38420900  -11.58657900
 C   23.57041000   -5.32879600  -12.23328200
 N   24.67591300   -6.07945000  -11.76414800
 C   24.84003000   -7.41530200  -11.73186900
 O   25.86669000   -7.90705300  -11.27668300
 C   23.72474000   -8.27266000  -12.31542700
 C   23.25393500   -7.72265800  -13.62755900
 C   21.90742600   -7.45053500  -13.84754100
 C   21.51120500   -6.79542900  -14.99707900
 C   22.46390400   -6.41937000  -15.92507400
 C   23.79470800   -6.75165000  -15.76630700
 C   24.18558000   -7.41425200  -14.61663000
 S   21.94321600   -5.42231500  -17.31163200
 O   20.98279400   -4.44863700  -16.78412200
 O   23.10138700   -4.82266700  -17.94787000
 C   21.07629900   -6.49191900  -18.48764000
 C   22.03423200   -7.57678300  -18.92259600
 C   23.73526100   -4.47746500  -13.32153400
 C   22.67909100   -3.70517000  -13.76450900
