26
-76.33776625724
 C   82.24624100   64.86653800   59.05780000
 C   83.15652400   64.93104300   60.11424800
 C   83.45246900   66.18239900   60.66406600
 C   82.85049300   67.32178100   60.16965800
 C   81.94152000   67.24860000   59.12881100
 C   81.63738600   66.01200700   58.56228400
 N   83.79800200   63.80018400   60.55365200
 C   80.68201600   65.91976900   57.44811800
 C   79.49707200   66.67731800   57.46429100
 C   78.59507900   66.60059300   56.43751500
 C   78.84414700   65.76168400   55.33973500
 C   80.03615500   64.99715300   55.30267000
 C   80.93592600   65.09280000   56.37051300
 N   77.92346600   65.70656800   54.33395100
 C   78.22024000   64.91039900   53.34996600
 N   79.29262700   64.14896100   53.17626900
 C   80.22530800   64.16751400   54.13400400
 N   81.30843900   63.41519400   53.98999700
 C   81.63791400   62.53811500   52.86411400
 C   80.56691600   61.45432000   52.72396700
 C   81.73548700   63.36399900   51.57957500
 C   82.99019200   61.90436900   53.18736800
 C   77.23713000   64.82645700   52.20845600
 F   76.99165500   63.55642000   51.83495200
 F   76.04508100   65.37497500   52.47514000
 F   77.69448200   65.44770400   51.09910300
26
-76.3377608226
 C   81.99920500   64.88163700   59.32829500
 C   82.87163100   65.02064400   60.40925500
 C   83.28955200   66.30615000   60.76779900
 C   82.84782900   67.40621500   60.06092300
 C   81.99027600   67.25968900   58.98476300
 C   81.55643100   65.98781900   58.61509700
 N   83.25217000   63.92667800   61.14543500
 C   80.63444700   65.81755200   57.48193900
 C   80.81704300   66.55923000   56.30096900
 C   79.96922700   66.41228600   55.23638400
 C   78.89157900   65.51555300   55.31004500
 C   78.68938200   64.76362500   56.49345500
 C   79.57625300   64.93253600   57.56310400
 N   78.06545500   65.39286200   54.23075000
 C   77.08828200   64.54705400   54.37032100
 N   76.77735100   63.78248600   55.40900100
 C   77.55661900   63.86537600   56.49232000
 N   77.27261200   63.11176600   57.54651300
 C   76.16838800   62.15969400   57.68630200
 C   74.83343600   62.89235200   57.53584100
 C   76.29998900   61.06169200   56.62873300
 C   76.28518500   61.55945700   59.08660600
 C   76.15658700   64.36835600   53.19721700
 F   74.86070400   64.46542500   53.55151300
 F   76.34352800   65.25721900   52.21367400
 F   76.28546500   63.14944400   52.62912100
26
-76.33768179419
 C   81.96120700   65.18879900   59.50861500
 C   82.94086300   65.41866400   60.47646800
 C   83.75786100   66.54640800   60.34503400
 C   83.59646300   67.40387200   59.27586600
 C   82.63047000   67.16332100   58.31475100
 C   81.80222500   66.04772400   58.42944000
 N   83.14084000   64.52250800   61.49511700
 C   80.76397800   65.78460600   57.42195500
 C   79.48448300   65.35189500   57.81436200
 C   78.50444400   65.11179300   56.88952400
 C   78.76473200   65.29162000   55.52179600
 C   80.04861800   65.72382700   55.10738900
 C   81.02863400   65.96360300   56.07749000
 N   77.76573700   65.04407700   54.62578900
 C   78.07828500   65.22897300   53.37752900
 N   79.22680300   65.62819600   52.84687700
 C   80.23812400   65.88378400   53.68318300
 N   81.39966000   66.28388700   53.18240300
 C   81.73682000   66.48587600   51.77146100
 C   81.57325100   65.16947200   51.00858800
 C   80.83188500   67.56639600   51.17580900
 C   83.19536500   66.93984400   51.73309600
 C   76.99871500   64.98296900   52.35259400
 F   77.44509700   64.28208000   51.29383100
 F   75.94146700   64.31186800   52.82716700
 F   76.51111200   66.13623300   51.84374400
26
-76.33767151011
 C   82.53379400   65.08805700   59.04055200
 C   83.36687100   65.31367800   60.13801100
 C   83.04021700   66.34616600   61.02336600
 C   81.91384000   67.11522400   60.81283300
 C   81.08674300   66.87797800   59.72913400
 C   81.39700400   65.85723900   58.83164200
 N   84.44210400   64.49723300   60.37860000
 C   80.53326500   65.59814000   57.67020600
 C   81.09652600   65.31825300   56.41210900
 C   80.30594500   65.08236200   55.31991800
 C   78.90765400   65.11266500   55.44049700
 C   78.32222200   65.38911400   56.70053800
 C   79.15758500   65.62925900   57.79758600
 N   78.14853000   64.87567400   54.33158200
 C   76.86275400   64.92130300   54.51663300
 N   76.17931900   65.16165000   55.62819200
 C   76.87722200   65.40062300   56.74311200
 N   76.22199100   65.64626700   57.87019900
 C   74.77078800   65.70115300   58.06020300
 C   74.17699000   66.80057300   57.17678000
 C   74.15386200   64.34427400   57.71440500
 C   74.53698300   66.02613500   59.53488500
 C   75.98009100   64.65630000   53.32215000
 F   75.05839900   65.62281600   53.14310400
 F   76.64470200   64.55471000   52.16453300
 F   75.27982100   63.50910900   53.45363500
