42
-68.42201712774
 C   17.16276500   21.71791200   40.08634600
 C   16.11076100   21.06555200   39.42358600
 C   15.60390500   19.88861100   39.90229000
 C   16.13848700   19.31506400   41.07483400
 C   17.20510200   19.97263000   41.74442500
 C   17.70132500   21.18337300   41.22407700
 N   15.61994200   18.15307100   41.52969400
 C   16.10717700   17.60405400   42.61391500
 C   17.16969400   18.18498900   43.34326200
 C   17.71231600   19.36138200   42.91154200
 C   15.47286800   16.33266800   43.09577600
 C   13.00549000   17.06259900   40.23263900
 O   13.11057300   17.44272700   38.86725500
 C   13.29277900   16.30715000   38.15448100
 C   13.44485300   16.16627200   36.81033800
 C   13.62128700   14.85007300   36.32009600
 C   13.63630500   13.73959200   37.21648100
 C   13.47493200   13.92331000   38.61171600
 C   13.30708000   15.19876700   39.04659700
 O   13.13297500   15.65073800   40.31420600
 C   14.50462800   16.62198500   44.24556600
 N   13.77372500   14.65996400   34.99383600
 C   13.93306300   13.43314700   34.57532200
 N   13.96454200   12.32305900   35.32053100
 C   13.81829200   12.48217400   36.61630000
 H   17.54355100   22.64612900   39.68841400
 H   15.70170700   21.50298300   38.52561300
 H   14.79624400   19.37989300   39.39875200
 H   18.51169600   21.67720100   41.74052200
 H   17.53688000   17.68964400   44.22868300
 H   18.52494400   19.83400600   43.44506200
 H   13.71914300   17.29590900   43.91275200
 H   16.25107000   15.64928800   43.43994700
 H   13.82129900   17.53753000   40.80770100
 H   12.02016200   17.36133500   40.61497100
 H   13.43426500   16.99837400   36.12974800
 H   13.48700500   13.08214700   39.28332100
 H   15.02609700   17.08429100   45.08052300
 H   14.92884000   15.86486000   42.27505300
 H   14.04778700   15.69792600   44.58803200
 H   14.05345800   13.29271700   33.50937400
 H   13.84403300   11.58230400   37.21761300
42
-68.42199995829
 C    6.55864900   20.94509100   39.54426300
 C    7.11227800   20.33736200   38.40617100
 C    8.25310200   19.59009700   38.50032700
 C    8.87975400   19.40778600   39.74972800
 C    8.32979900   20.03690300   40.89891600
 C    7.15951900   20.80743000   40.76498300
 N    9.95933700   18.60250400   39.82082300
 C   10.50943400   18.37261900   40.98620000
 C   10.07719700   19.00633600   42.17416200
 C    8.99467000   19.83711400   42.12779000
 C   11.57868100   17.32087800   41.03144800
 C   10.97462900   15.96902600   41.46018500
 O   10.01189900   15.51220000   40.52109000
 C    8.77640100   16.05989600   40.50051000
 C    8.11619500   16.58977800   41.57832400
 C    6.85295400   17.18636200   41.41745400
 C    6.25276400   17.21250300   40.12980600
 C    6.91037100   16.61032000   39.03887500
 C    8.14108900   16.03557800   39.20817200
 O    8.87501900   15.44649100   38.24263400
 C    8.36274800   15.42510000   36.92199100
 N    6.23629600   17.74690100   42.47994000
 C    5.08626400   18.32400100   42.25951700
 N    4.43548300   18.42002600   41.09470900
 C    5.01609100   17.87085000   40.05121000
 H    5.65307000   21.52413600   39.44823100
 H    6.62379700   20.46533500   37.45219400
 H    8.69427200   19.11322300   37.63958900
 H    6.73978100   21.27229300   41.64570500
 H   10.59801200   18.81629100   43.09977100
 H    8.62262200   20.32838800   43.01528100
 H   12.35786700   17.58904200   41.74348400
 H   12.00334200   17.20803500   40.03485800
 H   10.55189800   16.03571000   42.46632000
 H   11.74917800   15.20046200   41.44519200
 H    8.54693800   16.60753000   42.56534200
 H    6.42678900   16.63949500   38.07630200
 H    9.12574200   14.92614000   36.32981100
 H    7.42754800   14.86222300   36.87249800
 H    8.20570100   16.43912300   36.54702800
 H    4.59671900   18.77673100   43.11221500
 H    4.48579600   17.94995800   39.11036200
42
-68.42080658294
 C   16.19558700   15.92974000   37.66005800
 C   15.64951500   17.11473300   37.14054800
 C   14.36353600   17.47563100   37.43077900
 C   13.56475600   16.65120300   38.24980700
 C   14.12365000   15.46311000   38.79411100
 C   15.45283900   15.12358300   38.47752200
 N   12.28024300   16.99923300   38.46284900
 C   11.51212000   16.21615600   39.17696600
 C   11.99351400   15.05084300   39.81728500
 C   13.29500300   14.68169000   39.62836000
 C   10.05627200   16.57226500   39.24023700
 C    9.23501000   15.65238800   38.32048100
 O    9.55664900   15.83775700   36.94415100
 C   10.78095600   15.49635000   36.46319400
 C   11.34709100   16.36840000   35.56425400
 C   12.61234300   16.12320700   35.00978900
 C   13.30672800   14.94163900   35.38652200
 C   12.69370700   14.01936000   36.25257100
 C   11.44829300   14.26210500   36.77275600
 O   10.78037600   13.38828900   37.57147600
 C   11.36961400   12.12898400   37.84896500
 N   13.17563900   17.01186700   34.16213800
 C   14.37741300   16.74202700   33.73484300
 N   15.12536100   15.66939600   34.02899300
 C   14.59193400   14.78757900   34.84120000
 H   17.21044500   15.66363200   37.40741500
 H   16.25484600   17.73742500   36.49920200
 H   13.92160100   18.37411200   37.03048500
 H   15.87012600   14.21476500   38.88665400
 H   11.32769800   14.47085800   40.43708800
 H   13.70353300   13.79819200   40.09967300
 H    9.93518300   17.60431500   38.91291100
 H    9.67683700   16.45772000   40.25530300
 H    8.18002200   15.92672500   38.37257300
 H    9.35741900   14.60769700   38.61356000
 H   10.82615400   17.27717000   35.31527400
 H   13.23198900   13.11536500   36.48676200
 H   10.64091200   11.60529200   38.46301100
 H   11.54748200   11.56933900   36.92838700
 H   12.30417300   12.24829400   38.40153900
 H   14.82944100   17.45894300   33.06181200
 H   15.19791800   13.92128400   35.07691400
42
-68.42079972819
 C    6.68190200   23.90917300   36.46672800
 C    7.18656300   23.02544200   35.49900000
 C    8.43911700   22.49327700   35.62644000
 C    9.23619600   22.81900000   36.74314200
 C    8.73478800   23.73008700   37.71191000
 C    7.44203100   24.26281300   37.54704600
 N   10.43964300   22.22641000   36.87506400
 C   11.16731100   22.47807500   37.93337200
 C   10.78594900   23.42055200   38.91648700
 C    9.57687400   24.04520400   38.80054100
 C   12.41748800   21.66668700   38.10332000
 C   12.21229800   20.57648400   39.16908500
 O   11.24858400   19.60533100   38.76917700
 C    9.94009600   19.94313100   38.62494600
 C    9.28986100   19.41327700   37.53620800
 C    7.94072900   19.70321000   37.28192400
 C    7.24241900   20.55324500   38.18173500
 C    7.89251100   21.03559200   39.33122400
 C    9.20640900   20.73002000   39.57743000
 O    9.87607300   21.12048300   40.69401100
 C    9.17371700   21.83550400   41.69670900
 N    7.32812400   19.21306100   36.18206900
 C    6.09130800   19.57444900   35.98317300
 N    5.34136400   20.37257100   36.75585400
 C    5.91361200   20.84930500   37.83608100
 H    5.68642400   24.30803200   36.34635700
 H    6.57007200   22.76177900   34.65289000
 H    8.83921500   21.80264500   34.90136500
 H    7.06203000   24.94878600   38.29033800
 H   11.44973000   23.62581200   39.74180700
 H    9.24672200   24.77252300   39.52965400
 H   13.24508500   22.29900900   38.42365800
 H   12.65860600   21.19354800   37.15191300
 H   11.94253600   21.02296300   40.12839900
 H   13.12822100   19.99379600   39.28084400
 H    9.83993600   18.79921500   36.84366500
 H    7.32235500   21.64551800   40.01293800
 H    9.89827000   21.99184900   42.49224700
 H    8.82441200   22.79853200   41.31775800
 H    8.33045900   21.25325300   42.07379700
 H    5.60495400   19.18715400   35.09738700
 H    5.30525800   21.49312700   38.45951200
42
-68.420199451
 C   14.26970200   22.71084300   32.85753400
 C   15.38013700   21.93547200   33.22911300
 C   15.21249900   20.72862500   33.85108100
 C   13.91560000   20.24989100   34.13373900
 C   12.79207700   21.02437600   33.73589800
 C   13.00014400   22.26255000   33.09906100
 N   13.78585000   19.08455000   34.79997600
 C   12.58821600   18.64261500   35.09100100
 C   11.41045400   19.30723200   34.67581300
 C   11.51341800   20.49365300   34.00822800
 C   12.50528600   17.41125100   35.94648800
 C   12.94197300   17.72589100   37.38677600
 O   12.03911500   18.61980900   38.03714500
 C   11.93567400   19.90519200   37.60826800
 C   10.66457300   20.41871200   37.50878000
 C   10.44307700   21.72298600   37.03995500
 C   11.56428300   22.51322400   36.66604600
 C   12.86560700   22.01358000   36.85071900
 C   13.06984600   20.74806300   37.34068300
 O   14.28751900   20.22789700   37.61730000
 C   15.43746600   21.03658600   37.43316900
 N    9.18585000   22.19779300   36.90055300
 C    9.05704500   23.39349600   36.39595500
 N   10.03613500   24.21545400   35.99236300
 C   11.26578000   23.77838800   36.13123500
 H   14.42614800   23.66280500   32.37381900
 H   16.37309400   22.30328300   33.02006200
 H   16.05295400   20.11798700   34.14094900
 H   12.13828700   22.84810300   32.81212600
 H   10.44685300   18.88009300   34.90620500
 H   10.63401100   21.03888800   33.69360200
 H   13.18424200   16.65146100   35.56160900
 H   11.48573300   17.02592900   35.95064100
 H   13.95814300   18.12228500   37.38403300
 H   12.89390800   16.82369000   37.99788200
 H    9.82222200   19.79542900   37.75884300
 H   13.69422300   22.65654300   36.60176400
 H   16.27109700   20.41559400   37.75114400
 H   15.55782000   21.30999400   36.38238700
 H   15.38446300   21.93439700   38.05299000
 H    8.04923800   23.77073600   36.28180700
 H   12.05465300   24.44405500   35.80302300
42
-68.41973455634
 C    9.36379300   17.81036300   33.55673000
 C   10.58350600   17.13480100   33.72009500
 C   11.19266400   17.07849700   34.94281600
 C   10.60536200   17.71533000   36.05460300
 C    9.36262100   18.38531700   35.89428600
 C    8.75840700   18.41506900   34.62346100
 N   11.27079100   17.71617600   37.22870600
 C   10.76936900   18.36820900   38.24827600
 C    9.50764500   19.00280900   38.20522100
 C    8.80744700   19.00721000   37.03296900
 C   11.65299800   18.51431700   39.45201500
 C   12.43237400   19.84183500   39.36373100
 O   13.24781000   19.89437500   38.20067500
 C   12.70090300   20.14564100   36.98411300
 C   11.58966200   20.93333900   36.79334700
 C   11.06501900   21.15956000   35.51281100
 C   11.72675400   20.60526500   34.38375800
 C   12.88371200   19.83902300   34.58156100
 C   13.36939600   19.58460200   35.84236300
 O   14.48171400   18.81497000   35.89498700
 C   14.73419000   17.97517300   37.01856700
 N    9.93473100   21.88651600   35.36554800
 C    9.47941900   22.02787000   34.15191500
 N   10.00921000   21.54173500   33.02055500
 C   11.11508500   20.84572300   33.14117000
 H    8.90561900   17.84918700   32.58034400
 H   11.04117500   16.66134000   32.86506800
 H   12.13378400   16.57096100   35.08308600
 H    7.81948000   18.93737400   34.50683900
 H    9.12364000   19.48749400   39.08920100
 H    7.84854300   19.49831600   36.95144200
 H   12.36424500   17.68972900   39.47656900
 H   11.06477000   18.52422400   40.36815200
 H   13.14213500   19.90677700   40.18998700
 H   11.74869400   20.69278300   39.41202400
 H   11.06784700   21.38567200   37.62010300
 H   13.39334000   19.40411400   33.73633200
 H   15.45925900   17.24758000   36.65836100
 H   15.15643400   18.54209600   37.84862500
 H   13.81770600   17.47183900   37.33064400
 H    8.56968300   22.60265700   34.03549600
 H   11.54210500   20.45290900   32.22716100
42
-68.419716192
 C    7.32857600   19.27400100   34.80875000
 C    7.12107300   18.03104100   35.42754700
 C    7.97576900   17.58080100   36.39505900
 C    9.07182000   18.37239100   36.79345100
 C    9.29289800   19.62277600   36.15574200
 C    8.39876100   20.05091700   35.15668300
 N    9.84876400   17.94184100   37.80933000
 C   10.82553400   18.70351700   38.23598800
 C   11.16598100   19.92819000   37.61914100
 C   10.40373700   20.38201900   36.58105800
 C   11.51132900   18.27128900   39.49842600
 C   10.84073900   18.95051500   40.70934700
 O    9.46484700   18.60662400   40.80563500
 C    8.54902900   19.18673400   39.98935200
 C    8.66104200   20.46802000   39.50197900
 C    7.68370400   21.01834500   38.66032100
 C    6.52891600   20.25251900   38.34425200
 C    6.40026600   18.96308900   38.87881800
 C    7.38034100   18.41309300   39.67060200
 O    7.14076000   17.15415000   40.10633100
 C    8.21579000   16.25381000   40.36191300
 N    7.85348600   22.25879900   38.15026600
 C    6.92525600   22.69674200   37.34590200
 N    5.80896600   22.05958500   36.96564100
 C    5.61900600   20.85957900   37.46149500
 H    6.63560400   19.61297200   34.05399400
 H    6.27240700   17.43247900   35.13396500
 H    7.82455100   16.63270800   36.88614100
 H    8.56663600   21.00881500   34.68528000
 H   12.00914100   20.49348400   37.98426700
 H   10.61844100   21.32218800   36.09392900
 H   12.56268900   18.55385300   39.48719700
 H   11.41810300   17.19125500   39.60490200
 H   10.98099800   20.03331000   40.66881400
 H   11.27699700   18.56810400   41.63348600
 H    9.51215500   21.08790100   39.72954400
 H    5.53397800   18.36554000   38.64271500
 H    7.75448500   15.26794800   40.35122600
 H    8.96840500   16.32694800   39.57519900
 H    8.66667100   16.44329200   41.33635600
 H    7.06419300   23.68748400   36.93281100
 H    4.71768400   20.34542200   37.15268700
