29
-80.23813016051
 C   27.00658400   -0.28907900   85.81803800
 O   26.65844800    0.03910300   84.48634000
 C   25.70901100    0.98791300   84.27467100
 C   25.04017200    1.67958600   85.25376400
 C   24.07005000    2.64641300   84.92636400
 C   23.78875700    2.89982000   83.56192900
 C   24.48019700    2.18511300   82.56838000
 C   25.42195600    1.24785200   82.90138400
 O   26.11567800    0.53415700   81.98972100
 N   22.86531400    3.81878400   83.17631000
 C   22.25358000    4.45424200   84.13443700
 N   22.42207400    4.31277200   85.44654700
 C   23.31508100    3.42423300   85.86885200
 N   23.51372800    3.25261100   87.19597300
 C   22.92263200    3.87028500   88.29381900
 C   23.35899500    3.47633300   89.56025300
 C   22.82976900    4.03511000   90.70465900
 C   21.84064900    5.01039800   90.60914800
 C   21.40326100    5.40415100   89.34497000
 C   21.93250100    4.84621900   88.20015400
 N   21.26223500    5.62998400   91.72184900
 C   21.46971300    5.39909400   93.04105900
 O   22.22496200    4.53879000   93.48635300
 C   20.67540700    6.27649900   93.94705400
 C   20.36441400    7.59814400   93.63521800
 C   19.64180000    8.36800800   94.52921200
 C   19.21974300    7.82967600   95.73421100
 C   19.53815100    6.52011900   96.05613100
 C   20.27001400    5.75081000   95.17118000
29
-80.2381283701
 C   30.60492100    1.90060400   82.23938800
 O   31.90147300    1.77984100   82.79295800
 C   32.03630800    1.22588600   84.02631600
 C   31.00901200    0.75618000   84.80646500
 C   31.25723300    0.19771100   86.07509100
 C   32.59219200    0.12350500   86.54129700
 C   33.63559700    0.60781000   85.73346800
 C   33.37933900    1.15060700   84.50213200
 O   34.34146100    1.63189200   83.68703400
 N   32.90233300   -0.40431400   87.75426400
 C   31.90057600   -0.83943600   88.46366700
 N   30.60848600   -0.82763000   88.14654300
 C   30.25946500   -0.31925800   86.96970500
 N   28.95463700   -0.28777900   86.61381400
 C   27.81609700   -0.72132500   87.28624600
 C   26.58841500   -0.54019900   86.64669100
 C   25.40853500   -0.94076300   87.23787600
 C   25.42818500   -1.53747100   88.49564800
 C   26.65396500   -1.71990600   89.13512100
 C   27.83425100   -1.32002200   88.54452100
 N   24.27575400   -1.97574600   89.15618000
 C   22.97668400   -1.86973800   88.78477800
 O   22.59029500   -1.31739900   87.75778900
 C   22.01348900   -2.47079200   89.75002800
 C   20.75651600   -1.88250900   89.86543700
 C   19.81821200   -2.39999700   90.73851100
 C   20.12047500   -3.52286500   91.49208000
 C   21.35966200   -4.12929500   91.36338700
 C   22.30633400   -3.60781300   90.49963500
29
-80.23810064815
 C   29.27160900    3.71276200   85.56406300
 O   30.52493100    3.60465800   86.21174400
 C   30.55958100    3.59938300   87.57002400
 C   29.46814300    3.69948500   88.39640800
 C   29.61393600    3.68017300   89.79694900
 C   30.91171600    3.55346100   90.34919700
 C   32.02205400    3.45569700   89.49260600
 C   31.86532900    3.47674600   88.13202400
 O   32.89416800    3.38495800   87.26327200
 N   31.12260500    3.52162000   91.69090900
 C   30.06163700    3.61273300   92.44074400
 N   28.79526300    3.73851600   92.05283700
 C   28.54286800    3.77726000   90.74894800
 N   27.26773300    3.91149500   90.31718400
 C   26.07297600    4.01701400   91.02264500
 C   25.98501100    4.00642800   92.41331200
 C   24.75480900    4.11080900   93.02766800
 C   23.58273400    4.23006500   92.28158100
 C   23.66925100    4.24610400   90.89210100
 C   24.89906000    4.13993900   90.27695000
 N   22.37404800    4.33452400   92.97771100
 C   21.10773900    4.40612000   92.50031100
 O   20.81105500    4.36845800   91.30874700
 C   20.06105300    4.51274000   93.55580600
 C   20.26399500    5.19129000   94.75547300
 C   19.24407600    5.26918200   95.68698800
 C   18.02010500    4.67005200   95.43600900
 C   17.80745600    4.00623400   94.23850600
 C   18.81969800    3.93584700   93.29986600
29
-80.238095429
 C   29.40421200    3.74570700   85.64649900
 O   29.35054200    2.43076700   85.12651300
 C   28.34226500    1.61181500   85.52536000
 C   27.34287200    1.94680600   86.40476200
 C   26.34136600    1.02011900   86.75304000
 C   26.37555000   -0.27402100   86.17918300
 C   27.40492600   -0.60564300   85.28115400
 C   28.37334700    0.30558400   84.95223100
 O   29.38364100    0.04074300   84.09734600
 N   25.43905200   -1.21463400   86.46954000
 C   24.50823000   -0.85790200   87.30767900
 N   24.36373600    0.31567700   87.91744700
 C   25.25712900    1.26546300   87.66262800
 N   25.14271700    2.47167800   88.26437200
 C   24.20684100    2.95067100   89.17579000
 C   23.14866900    2.19506200   89.67697000
 C   22.26877200    2.75402400   90.57983300
 C   22.41391100    4.07332600   91.00781200
 C   23.47092500    4.82944400   90.50842600
 C   24.35198000    4.27082000   89.60632800
 N   21.47617500    4.57045300   91.91878900
 C   21.41198400    5.78714600   92.51244500
 O   22.23565900    6.68395100   92.35044500
 C   20.24614800    5.96201900   93.42418900
 C   20.40620300    6.79281700   94.53054300
 C   19.35915800    7.00067800   95.40840200
 C   18.13430500    6.39449900   95.17918000
 C   17.95958900    5.58737100   94.06666700
 C   19.00838700    5.36694300   93.19150200
29
-80.23808485823
 C   26.68598700    2.85010700   98.96499800
 O   25.96659400    3.97162500   99.44148300
 C   24.82824000    4.33868000   98.79660100
 C   24.29525500    3.70998700   97.69892700
 C   23.10485200    4.17153100   97.10463900
 C   22.45722900    5.30323500   97.65682400
 C   23.01364400    5.93943900   98.78014100
 C   24.17157000    5.47886200   99.34874800
 O   24.74812900    6.04824500  100.42807700
 N   21.30535300    5.79899300   97.13413900
 C   20.83078400    5.17357700   96.09498400
 N   21.33707200    4.10710100   95.48152100
 C   22.46310800    3.58854700   95.95958300
 N   23.00818000    2.50411800   95.36191100
 C   22.58603900    1.75836500   94.26586400
 C   21.43083400    2.03037900   93.53565000
 C   21.08924400    1.23389400   92.46288100
 C   21.88188600    0.14990200   92.08681200
 C   23.03730800   -0.12228500   92.81435600
 C   23.37914400    0.67334100   93.88773000
 N   21.47311300   -0.60635700   90.98343500
 C   22.01763200   -1.73230200   90.46141800
 O   23.00193500   -2.30609400   90.92086600
 C   21.30501300   -2.25729600   89.26250600
 C   21.29726400   -3.63548100   89.06250300
 C   20.66089100   -4.18055600   87.96326400
 C   20.04079900   -3.35164000   87.04212900
 C   20.06571200   -1.97786900   87.22109100
 C   20.69123800   -1.42851200   88.32615400
29
-80.2374296445
 C   21.06337100    4.70122700  101.22809200
 O   20.47374500    3.41983900  101.11146900
 C   20.07992500    2.99220700   99.88360900
 C   20.20163800    3.70189800   98.71490400
 C   19.76045000    3.16506400   97.48994800
 C   19.18504500    1.87151600   97.47656600
 C   19.06537900    1.15467300   98.67991900
 C   19.49767000    1.68964200   99.86445300
 O   19.40674000    1.04777200  101.04826100
 N   18.74016900    1.29334600   96.33010600
 C   18.87377100    1.99804700   95.24290300
 N   19.39144000    3.21706900   95.11834000
 C   19.83886900    3.82028200   96.21407400
 N   20.37123500    5.06095400   96.12631900
 C   20.55415300    5.90005700   95.03135900
 C   21.12947000    7.14965100   95.27648100
 C   21.34376100    8.03928500   94.24732400
 C   20.99070000    7.70701200   92.93918500
 C   20.41807900    6.46268200   92.69339800
 C   20.20281000    5.56984900   93.72514000
 N   21.22622700    8.65854900   91.94129300
 C   21.05245600    8.56390400   90.60013700
 O   20.65546000    7.55801300   90.01845300
 C   21.40888600    9.80290100   89.85184000
 C   21.93597500    9.66225500   88.57077700
 C   22.27673600   10.77700300   87.82783000
 C   22.07606900   12.04437100   88.35086900
 C   21.52739600   12.19262200   89.61452300
 C   21.19625700   11.07969300   90.36683100
29
-80.23742718565
 C   30.99363600    6.21214900   97.68541700
 O   31.48778800    7.02265500   96.63564300
 C   30.77667700    7.09940100   95.48065200
 C   29.59707300    6.44528900   95.22553200
 C   28.93737300    6.59295000   93.99018300
 C   29.50968600    7.43231000   93.00400200
 C   30.71799500    8.09692700   93.27683300
 C   31.34904800    7.94380100   94.48292900
 O   32.50942800    8.55656100   94.79883800
 N   28.92588500    7.61976300   91.79151700
 C   27.80819300    6.98270600   91.58809800
 N   27.16813100    6.16939800   92.42376300
 C   27.70326000    5.95748000   93.62100200
 N   27.08102300    5.13584800   94.49736000
 C   25.89306800    4.41895900   94.39036900
 C   25.06693700    4.43655200   93.26966600
 C   23.90195700    3.69474400   93.24467000
 C   23.53204000    2.91709500   94.33785600
 C   24.35867300    2.89846700   95.46153300
 C   25.52009800    3.63791500   95.48729800
 N   22.37086100    2.13766100   94.37285300
 C   21.37960900    2.02523500   93.45537300
 O   21.33178300    2.65120300   92.39994700
 C   20.30054300    1.07088400   93.83959700
 C   19.00260300    1.35133300   93.42045800
 C   17.96353600    0.49767500   93.74006600
 C   18.21466100   -0.65565900   94.46603200
 C   19.50770000   -0.95486000   94.86381500
 C   20.54898200   -0.09691300   94.55701200
29
-80.23740886643
 C   25.00955900   -3.10079000   87.91307800
 O   26.37102500   -2.87742200   87.59728700
 C   26.95473400   -1.72182400   88.00932300
 C   26.33437800   -0.72432300   88.71964400
 C   27.03186700    0.43855200   89.09954400
 C   28.39499400    0.56821700   88.73933600
 C   29.01908800   -0.45958800   88.01110500
 C   28.32778600   -1.58447300   87.64639400
 O   28.87563800   -2.60033900   86.94662700
 N   29.12764300    1.66195700   89.07600200
 C   28.50315300    2.58574300   89.74912900
 N   27.23325100    2.59027100   90.14507700
 C   26.47954000    1.54053600   89.83717400
 N   25.18270400    1.51091600   90.22104000
 C   24.41825800    2.43656900   90.92486500
 C   24.89785300    3.66132600   91.38156900
 C   24.07073100    4.52587200   92.07186300
 C   22.74437000    4.18931700   92.32464800
 C   22.26219200    2.96231800   91.86789200
 C   23.08595500    2.10035600   91.17883100
 N   21.85404500    5.02146200   93.01141000
 C   22.07269100    6.22622300   93.59262500
 O   23.16056000    6.79481100   93.62989300
 C   20.86343200    6.82546500   94.22582700
 C   19.58251500    6.67069200   93.70105700
 C   18.50276800    7.27152700   94.32352600
 C   18.68742300    8.02388400   95.47228500
 C   19.96113400    8.19289500   95.99120400
 C   21.04430800    7.60450700   95.36579900
29
-80.2374072883
 C   26.72224500   12.42586700   89.98518300
 O   27.07189900   12.16208800   88.63934000
 C   26.68261000   10.98541500   88.08282200
 C   25.96751200   10.00075300   88.71804200
 C   25.61302700    8.81367400   88.04849700
 C   26.00436500    8.64572200   86.69820200
 C   26.73676100    9.66092300   86.05853600
 C   27.07646700   10.80972300   86.72273100
 O   27.77910200   11.81483300   86.15890500
 N   25.69390200    7.52671400   85.99260500
 C   25.01685600    6.61542700   86.63108500
 N   24.59277000    6.64629300   87.89153100
 C   24.87251300    7.72261700   88.61810900
 N   24.45710400    7.78947000   89.90385900
 C   23.73640800    6.88478100   90.67765800
 C   23.44116200    7.26337000   91.98981900
 C   22.73222900    6.42506100   92.82108000
 C   22.29625000    5.18016900   92.36668900
 C   22.59089700    4.80094100   91.06050300
 C   23.30118600    5.64170000   90.22578100
 N   21.58735600    4.37376000   93.26335200
 C   21.01050200    3.16320400   93.06464200
 O   21.00174100    2.56307700   91.99340900
 C   20.34460300    2.60007600   94.27379800
 C   20.83186500    2.79786500   95.56368500
 C   20.18069400    2.22862200   96.64378900
 C   19.04046700    1.46581100   96.45038500
 C   18.55891800    1.25410000   95.16833400
 C   19.21318800    1.81033700   94.08536800
