54
-95.73022187112
 F   -9.14721100   32.77215200   -4.84698800
 C   -9.98600700   31.82697100   -5.32855600
 F   -9.35780300   31.27974900   -6.37339100
 F  -11.02527700   32.52170900   -5.84496200
 O  -10.31006400   30.89373200   -4.48571300
 C  -10.99058200   31.20772000   -3.27218100
 C  -11.36258900   32.48419300   -2.89814400
 C  -12.02298300   32.67207600   -1.69492500
 C  -11.26701700   30.11564300   -2.46349200
 C  -11.92365800   30.30892800   -1.26751300
 C  -12.31153900   31.59115800   -0.86741800
 N  -12.97159600   31.71546800    0.35172600
 C  -13.46345800   32.85169800    0.94364400
 O  -13.38957200   33.96938800    0.45831700
 N  -14.05290500   32.58304500    2.15097300
 C  -14.66888900   33.47980300    3.02110200
 C  -14.74149900   34.85177300    2.84588000
 C  -15.38748700   35.62331200    3.80590400
 C  -15.93748900   34.99662700    4.90418400
 N  -15.87895700   33.68125200    5.08948400
 C  -15.26656700   32.94655400    4.18854700
 O  -15.22360400   31.59766200    4.32724700
 C  -15.53427300   31.02818800    5.56383700
 C  -14.87359700   31.50055500    6.68828200
 C  -15.09565600   30.92683800    7.92435000
 C  -15.97886300   29.86880400    8.02364500
 C  -16.62440700   29.39520900    6.89526800
 C  -16.42829100   29.95306400    5.63547300
 C  -17.14952000   29.42295100    4.40204000
 C  -16.11643400   28.94050300    3.37398200
 C  -18.07069600   28.24103100    4.72338700
 C  -18.01785100   30.53866800    3.80198400
 H  -11.15442100   33.34287200   -3.51562200
 H  -12.31547800   33.66511900   -1.39994500
 H  -10.96215200   29.13541700   -2.78759200
 H  -12.13762600   29.45870500   -0.64000800
 H  -13.10043000   30.83937300    0.84108100
 H  -14.06864600   31.62883800    2.48889500
 H  -14.29889400   35.30271000    1.97343300
 H  -15.45453200   36.69192200    3.69026600
 H  -16.45228100   35.54207500    5.68098400
 H  -14.18669500   32.32613100    6.58090200
 H  -14.58020600   31.30251200    8.79405200
 H  -16.16767500   29.40625300    8.97999800
 H  -17.30285600   28.56802700    7.01246200
 H  -16.62384200   28.52931500    2.50460400
 H  -15.48535500   29.76044000    3.05061000
 H  -15.48882900   28.16688400    3.81073100
 H  -18.55389000   27.90909700    3.80716500
 H  -17.50918800   27.40311800    5.12856400
 H  -18.84918000   28.52792100    5.42563800
 H  -18.55827200   30.16314500    2.93604700
 H  -18.74064800   30.88606700    4.53723600
 H  -17.42231500   31.38943200    3.48606300
54
-95.73021044084
 F  -20.31009800   27.19925400    9.73881000
 C  -19.14873400   26.54548600    9.96925300
 F  -19.48694800   25.27603600   10.21379500
 F  -18.70337300   27.04234900   11.14579100
 O  -18.29159500   26.58155500    8.99448400
 C  -17.76034900   27.82235600    8.53353800
 C  -16.85182200   27.71226100    7.49146200
 C  -16.27783300   28.85200300    6.97161300
 C  -18.09862500   29.05486100    9.05695900
 C  -17.51794900   30.19718800    8.53032600
 C  -16.60339900   30.11106800    7.48514700
 N  -15.98517700   31.21992000    6.91504800
 C  -16.13655400   32.54408500    7.24174700
 O  -16.87940400   32.95785100    8.11765600
 N  -15.35205600   33.35349600    6.46285600
 C  -15.24671300   34.74171800    6.50339100
 C  -15.91204600   35.57530100    7.38679200
 C  -15.70284600   36.94807500    7.30922700
 C  -14.83867500   37.43719500    6.35252100
 N  -14.19205300   36.65343300    5.49459800
 C  -14.38168100   35.35511400    5.56479900
 O  -13.77009700   34.52761600    4.68037700
 C  -12.70498700   35.00613500    3.91497700
 C  -11.65715700   35.63804400    4.56834400
 C  -10.55203400   36.07249500    3.86392800
 C  -10.50023200   35.86013900    2.49952200
 C  -11.54251400   35.21543500    1.85751400
 C  -12.67257700   34.76821700    2.53549000
 C  -13.81058500   34.05534300    1.81448400
 C  -15.10880600   34.85761400    1.98718400
 C  -13.55339800   33.91027700    0.31062800
 C  -13.97536200   32.64438800    2.39683100
 H  -16.61178800   26.73552800    7.10797900
 H  -15.57137000   28.76454100    6.16183200
 H  -18.80325400   29.15666200    9.86635400
 H  -17.77870800   31.15974300    8.93578900
 H  -15.34499600   30.99340100    6.16501400
 H  -14.75041400   32.93160200    5.76643500
 H  -16.57831800   35.15337600    8.12069400
 H  -16.20854200   37.61460900    7.98732200
 H  -14.63760500   38.49251600    6.24410900
 H  -11.72200500   35.78773400    5.63521300
 H   -9.74331500   36.56584100    4.37946400
 H   -9.64670100   36.19305200    1.92954700
 H  -11.46383100   35.06506400    0.79476800
 H  -15.91856500   34.37350600    1.44607200
 H  -15.39945500   34.93708200    3.02996500
 H  -14.98192000   35.86346300    1.59246200
 H  -14.39663200   33.39599000   -0.14499100
 H  -13.45715500   34.88161800   -0.16761200
 H  -12.65939100   33.32257700    0.11859400
 H  -14.76828800   32.11714600    1.87195900
 H  -13.04947700   32.08447000    2.28532700
 H  -14.22838800   32.69212500    3.44988800
54
-95.72977607643
 F   -8.56221700   40.86564500    7.42846600
 C   -9.18423100   41.47118600    6.39088000
 F   -8.58000600   42.65299300    6.24140100
 F  -10.42568200   41.74625300    6.85265200
 O   -9.14426100   40.81981700    5.26803300
 C   -9.72762300   39.52303900    5.15558300
 C  -10.35905500   38.86388500    6.19356400
 C  -10.88548600   37.60552300    5.96188200
 C   -9.61908400   38.94326200    3.90150500
 C  -10.14618900   37.68810400    3.67615200
 C  -10.78730200   37.00259500    4.70813800
 N  -11.33933400   35.73392500    4.55743300
 C  -11.38161500   34.94951300    3.43162000
 O  -10.92906900   35.27490500    2.34620000
 N  -11.99952500   33.75019800    3.67117900
 C  -12.23063900   32.70978100    2.77442200
 C  -11.83418000   32.68613800    1.44778900
 C  -12.13658500   31.57252000    0.67136000
 C  -12.82424300   30.52564100    1.24792900
 N  -13.21364800   30.52997200    2.51950400
 C  -12.92695900   31.57661000    3.26034500
 O  -13.34088500   31.63351400    4.55138200
 C  -13.80241200   30.47453400    5.17840000
 C  -13.00801600   29.33855600    5.13003700
 C  -13.39202200   28.18646200    5.78682400
 C  -14.57449600   28.18434400    6.50188400
 C  -15.35293600   29.32664300    6.55905700
 C  -14.99835300   30.50334300    5.90608200
 C  -15.86290000   31.75615800    5.98493900
 C  -16.31364700   32.15881100    4.57286100
 C  -17.12429700   31.54710500    6.82990900
 C  -15.05403500   32.89039800    6.63002200
 H  -10.45242700   39.30071200    7.17461900
 H  -11.37772500   37.09270400    6.77258500
 H   -9.12064300   39.48549300    3.11650000
 H  -10.06499400   37.23397100    2.70347800
 H  -11.76066700   35.36521800    5.39990700
 H  -12.33887100   33.55035500    4.60376600
 H  -11.29885200   33.52507600    1.03538100
 H  -11.83671500   31.53194700   -0.36216000
 H  -13.08893900   29.63633900    0.69563700
 H  -12.08811200   29.36922300    4.56650800
 H  -12.77033700   27.30637300    5.74080000
 H  -14.89436100   27.29413100    7.02096400
 H  -16.26468600   29.28745400    7.12951500
 H  -16.96481600   33.02835400    4.62527700
 H  -15.47137500   32.40572400    3.93439500
 H  -16.86375500   31.34256400    4.10947300
 H  -17.69566400   32.47249200    6.84849700
 H  -17.75785400   30.77214800    6.40613500
 H  -16.87352800   31.28810300    7.85537100
 H  -15.66166300   33.79007400    6.69096000
 H  -14.74867900   32.60591100    7.63453800
 H  -14.16671100   33.10909100    6.04677900
54
-95.72967572332
 F  -13.78252900   29.94982000    9.20327200
 C  -13.21376900   28.73286800    9.33939800
 F  -12.32384400   28.86022800   10.32836900
 F  -12.50128300   28.55387600    8.20846000
 O  -14.04148200   27.76929000    9.62763500
 C  -14.92920700   27.26036500    8.64102100
 C  -15.44201600   25.99897200    8.90827200
 C  -16.32745000   25.42587400    8.02029900
 C  -15.28135400   27.94792100    7.49545100
 C  -16.17266400   27.36629200    6.60768100
 C  -16.71338500   26.10803600    6.86390400
 N  -17.58710100   25.47541500    5.97543600
 C  -18.57733100   25.99733300    5.18972800
 O  -19.10768300   25.31157300    4.32741900
 N  -18.93277900   27.28383600    5.48872300
 C  -19.91733400   28.05485300    4.88592800
 C  -20.57425200   27.72594900    3.70567300
 C  -21.53623500   28.59218700    3.20889900
 C  -21.81289900   29.75623300    3.90254800
 N  -21.18731300   30.08938800    5.02458600
 C  -20.27233400   29.27457200    5.50010800
 O  -19.70124500   29.61145400    6.70329500
 C  -18.45592000   30.21866100    6.71406200
 C  -17.86126900   30.62427100    5.52739300
 C  -16.62325300   31.23978900    5.53296000
 C  -15.98451900   31.45468700    6.73743000
 C  -16.58138400   31.04450300    7.91868300
 C  -17.81522000   30.40702100    7.94968000
 C  -18.45287100   29.95462800    9.25713200
 C  -18.75010700   28.44779800    9.20844300
 C  -17.54241800   30.20318000   10.46472300
 C  -19.75509900   30.73883300    9.47181100
 H  -15.14034900   25.49135200    9.80839100
 H  -16.72625700   24.44517300    8.22081700
 H  -14.88223400   28.92286800    7.26900900
 H  -16.41480700   27.89610000    5.70080200
 H  -17.49571600   24.47077000    5.89346400
 H  -18.54784700   27.67672700    6.34036000
 H  -20.33676300   26.80247000    3.20357500
 H  -22.06020600   28.35902000    2.29719500
 H  -22.55578800   30.46282300    3.56449300
 H  -18.38451200   30.46727500    4.59520900
 H  -16.17469400   31.55091600    4.60270100
 H  -15.02144100   31.94061200    6.76850600
 H  -16.05104500   31.22918700    8.83655900
 H  -19.12254300   28.11936100   10.17550900
 H  -19.50919200   28.22352800    8.46615300
 H  -17.84309400   27.89062600    8.98270500
 H  -18.03986400   29.84735900   11.36383800
 H  -16.60128300   29.66631100   10.36638800
 H  -17.33815500   31.26264000   10.59529100
 H  -20.22383000   30.43326700   10.40404700
 H  -19.54663800   31.80535200    9.52103300
 H  -20.45309800   30.56155000    8.65957200
54
-95.72956984894
 F  -15.24884500   30.47178700    3.57687400
 C  -16.10276100   31.26993100    4.25626200
 F  -17.29292800   31.11724900    3.67122400
 F  -15.70206500   32.52720000    3.96830800
 O  -16.21082200   31.00578900    5.52552200
 C  -15.09186700   31.13581400    6.39456000
 C  -15.36651000   30.88696300    7.73062100
 C  -14.36314000   31.00745600    8.66965500
 C  -13.81722200   31.47397900    5.97924600
 C  -12.81314800   31.58568200    6.92578500
 C  -13.07412400   31.37538600    8.27785600
 N  -12.02411600   31.48014800    9.19202700
 C  -12.05295700   31.86412300   10.50715100
 O  -11.10446000   31.63078600   11.24421300
 N  -13.17087800   32.55452900   10.87735300
 C  -13.48340200   33.02536800   12.14998700
 C  -12.96201300   32.50797800   13.32346200
 C  -13.39789300   33.01914200   14.54082600
 C  -14.34941500   34.01722000   14.53578800
 N  -14.85391700   34.53200600   13.41869700
 C  -14.42961100   34.07326600   12.26205800
 O  -14.91768400   34.55761600   11.09420000
 C  -15.72992100   35.68779500   11.05233100
 C  -15.44244100   36.77830100   11.85996300
 C  -16.21865400   37.91950900   11.80041600
 C  -17.28147600   37.96776200   10.91975200
 C  -17.54121200   36.89020100   10.09130900
 C  -16.77818500   35.72805300   10.12055600
 C  -17.04165600   34.57513800    9.15888600
 C  -17.30014000   33.27870800    9.93947600
 C  -18.26462400   34.81807400    8.26684700
 C  -15.82250900   34.42622000    8.23620600
 H  -16.36259500   30.59239800    8.01334300
 H  -14.57657700   30.78545300    9.70221700
 H  -13.58437100   31.65364300    4.94234400
 H  -11.81708500   31.84414200    6.60608100
 H  -11.10967100   31.19252000    8.86915200
 H  -13.77081000   32.90293500   10.13937300
 H  -12.22176500   31.72609700   13.27877100
 H  -13.00417300   32.63652200   15.46716800
 H  -14.73935000   34.44500100   15.44741300
 H  -14.60767400   36.72380900   12.53940400
 H  -15.98784300   38.75934300   12.43652800
 H  -17.90526400   38.84647300   10.86546800
 H  -18.36703000   36.96874200    9.40567500
 H  -17.56259600   32.48195000    9.24856700
 H  -16.43026200   32.96683100   10.50656300
 H  -18.12718800   33.42288300   10.63158400
 H  -18.39453300   33.96433400    7.60489100
 H  -19.16916900   34.92489300    8.86013700
 H  -18.13398700   35.70074300    7.64627700
 H  -15.96368000   33.58742800    7.55915700
 H  -15.69517900   35.33050100    7.64495600
 H  -14.91264700   34.26521200    8.80469800
54
-95.72894087329
 F  -10.37165000   37.48136000   12.44134300
 C  -10.48143300   36.20023700   12.03093700
 F  -10.82039600   35.49189100   13.11001700
 F   -9.21939000   35.82690800   11.72179800
 O  -11.36089200   35.99970600   11.09183100
 C  -11.27674900   36.69756400    9.85765400
 C  -10.22828600   37.52716200    9.50240200
 C  -10.27171600   38.17350700    8.27855900
 C  -12.34164000   36.48058900    8.99701800
 C  -12.38145800   37.13269700    7.78164900
 C  -11.35426900   38.00627900    7.41814400
 N  -11.35867100   38.68035100    6.19306700
 C  -12.40493700   39.25038100    5.52130900
 O  -12.26569400   39.63887700    4.37041900
 N  -13.55294900   39.38062000    6.25388400
 C  -14.76296100   39.92964900    5.85317200
 C  -15.09240700   40.25865200    4.54323700
 C  -16.34404200   40.79407500    4.28034400
 C  -17.22565200   40.98470200    5.32882400
 N  -16.92927900   40.66808200    6.58305400
 C  -15.74556800   40.15782300    6.84013300
 O  -15.44048000   39.91727400    8.15786200
 C  -15.57811800   38.63393500    8.66310200
 C  -16.15483900   37.63415300    7.89242300
 C  -16.30200800   36.35393400    8.39286300
 C  -15.86736800   36.07800700    9.67345000
 C  -15.28601900   37.07829400   10.43598400
 C  -15.11511900   38.37349800    9.96327700
 C  -14.48476600   39.46417400   10.81995600
 C  -15.53535900   40.55200600   11.08473500
 C  -13.99812900   38.93365800   12.17306200
 C  -13.27113800   40.07347200   10.10155100
 H   -9.38358200   37.68942400   10.15192900
 H   -9.45872100   38.82266600    7.99812900
 H  -13.12701000   35.80627600    9.29054500
 H  -13.20162900   36.94031000    7.10941600
 H  -10.46561700   38.79651800    5.73196700
 H  -13.48411300   39.18720600    7.24684800
 H  -14.37048100   40.10437300    3.75810900
 H  -16.62284700   41.05863300    3.27414400
 H  -18.21032100   41.40207800    5.18152700
 H  -16.50450800   37.87179800    6.89812800
 H  -16.75721400   35.58927000    7.78356300
 H  -15.97929000   35.08749500   10.08629200
 H  -14.95584500   36.82588600   11.42881100
 H  -15.10959600   41.33786100   11.70395700
 H  -15.87855500   40.99312400   10.15421900
 H  -16.39272900   40.12779800   11.60268400
 H  -13.54127000   39.74733600   12.73164800
 H  -14.82202000   38.54563100   12.76617700
 H  -13.24855300   38.15558900   12.04576700
 H  -12.77985200   40.78701600   10.75855800
 H  -12.55459000   39.29654200    9.84355200
 H  -13.57329400   40.60124500    9.20290200
54
-95.72890396882
 F  -21.76798500   34.04579000    6.50435100
 C  -22.96319700   33.91978600    7.11644500
 F  -23.73133500   33.20221500    6.29424900
 F  -23.48573100   35.16695500    7.11666300
 O  -22.92096000   33.33993700    8.28211200
 C  -22.05872900   33.82890400    9.30036400
 C  -21.92315900   32.99324400   10.39739300
 C  -21.08683300   33.35694000   11.43488100
 C  -21.40523600   35.04610700    9.24392500
 C  -20.57457700   35.40713700   10.28942500
 C  -20.38345100   34.56030200   11.37815800
 N  -19.53400700   34.97090300   12.40953200
 C  -18.57104300   34.27441100   13.08402200
 O  -17.90364300   34.82865400   13.94589300
 N  -18.40502900   32.96482100   12.71464700
 C  -17.30423400   32.19459900   13.11231900
 C  -16.84423900   32.20340500   14.42234700
 C  -15.77083400   31.40036400   14.77678600
 C  -15.19726600   30.60374100   13.80413200
 N  -15.61662400   30.58890900   12.54683600
 C  -16.62719300   31.36092000   12.19604100
 O  -17.01920600   31.19965400   10.90068400
 C  -17.36487500   32.29208900   10.12335100
 C  -16.75326500   33.52096100   10.34488500
 C  -17.07884200   34.61756600    9.57073600
 C  -18.01443300   34.47623000    8.56435000
 C  -18.59773100   33.24318700    8.32711300
 C  -18.29574400   32.11808300    9.08553300
 C  -18.89642800   30.75204200    8.78062600
 C  -19.59661700   30.17352200   10.01886700
 C  -19.93064200   30.81065400    7.65109200
 C  -17.75982800   29.81697900    8.34159700
 H  -22.48765400   32.07627700   10.42595200
 H  -21.00921700   32.72237400   12.30300500
 H  -21.52271700   35.71727600    8.40902000
 H  -20.06296400   36.35469500   10.25295200
 H  -19.48582200   35.96792900   12.57805600
 H  -18.85377500   32.68092100   11.85179100
 H  -17.32805700   32.83889600   15.14557600
 H  -15.40119900   31.39223600   15.78811000
 H  -14.36501800   29.94910300   14.01551600
 H  -16.01504800   33.60450500   11.13065500
 H  -16.59645600   35.56437200    9.75430900
 H  -18.28261400   35.31848600    7.94683400
 H  -19.30669200   33.17022700    7.52061900
 H  -20.07742900   29.23428300    9.75702500
 H  -18.88901500   29.97321000   10.81653100
 H  -20.35668200   30.86280500   10.37613100
 H  -20.32657500   29.81242800    7.48017900
 H  -20.76234700   31.46130800    7.91140500
 H  -19.48454000   31.15358500    6.72109500
 H  -18.15909900   28.83479300    8.10097400
 H  -17.26412000   30.21598300    7.45911700
 H  -17.02330800   29.70651900    9.13163400
54
-95.72849628118
 F  -24.42837300   41.48309100    7.55395800
 C  -23.08834000   41.64661100    7.49138900
 F  -22.82514400   42.79504100    8.11838400
 F  -22.82733700   41.86538300    6.18573700
 O  -22.39303700   40.69026900    8.03833900
 C  -22.51032600   39.35074500    7.58055200
 C  -21.77826000   38.42204600    8.30663400
 C  -21.80720600   37.09485400    7.93583100
 C  -23.28504700   38.96489000    6.50370200
 C  -23.30031400   37.62950600    6.12957800
 C  -22.55177700   36.68689600    6.82790800
 N  -22.56920500   35.33210000    6.48313100
 C  -22.47064100   34.74676100    5.25319400
 O  -22.52905000   33.53097900    5.13833200
 N  -22.27990200   35.60173300    4.19779500
 C  -21.90983400   35.15582700    2.92148900
 C  -22.57256500   34.10928900    2.29634800
 C  -22.19617600   33.73209000    1.01586700
 C  -21.17200500   34.42671800    0.40063400
 N  -20.51502800   35.41624300    0.98998500
 C  -20.85232800   35.76845600    2.21541700
 O  -20.15506600   36.83180500    2.70600200
 C  -19.70507100   36.81746100    4.01793900
 C  -19.36341800   35.60969100    4.61584900
 C  -18.91472200   35.57269700    5.92154700
 C  -18.80026300   36.75499600    6.62666800
 C  -19.10903400   37.95850900    6.01613000
 C  -19.56106500   38.03440400    4.70382200
 C  -19.84426600   39.36743700    4.02376800
 C  -21.28780200   39.41482900    3.50292500
 C  -19.65670400   40.55507200    4.97380400
 C  -18.86264500   39.53069000    2.85416200
 H  -21.19876300   38.75893500    9.14885800
 H  -21.24637500   36.36772200    8.49910400
 H  -23.88791000   39.66926600    5.95297400
 H  -23.92702100   37.32544200    5.30689300
 H  -22.50091500   34.67129000    7.24655600
 H  -22.00560400   36.54877200    4.43069600
 H  -23.36896600   33.60409900    2.81790300
 H  -22.69756300   32.92398200    0.51084500
 H  -20.84049900   34.19177100   -0.59978400
 H  -19.45447200   34.69723500    4.04270800
 H  -18.65639200   34.62678700    6.37044600
 H  -18.45338300   36.74827400    7.64736800
 H  -18.99084600   38.86054200    6.59005100
 H  -21.48967900   40.39525000    3.07835900
 H  -21.45468300   38.67438600    2.72721200
 H  -21.98658100   39.24745100    4.31886400
 H  -19.89011400   41.47524900    4.44321000
 H  -20.32560500   40.48571400    5.82848400
 H  -18.63014200   40.62251900    5.32371300
 H  -19.03150600   40.48362600    2.35870200
 H  -17.83758800   39.50469100    3.21753900
 H  -18.99170500   38.73532300    2.12651600
54
-95.72830607042
 F  -11.50417300   39.76587600    7.70291800
 C  -12.37417400   40.27806600    8.59844200
 F  -12.31030000   41.60607500    8.46119700
 F  -11.82011600   40.01134800    9.80536100
 O  -13.60609800   39.88829700    8.45904200
 C  -13.92145300   38.49801500    8.41209800
 C  -15.20874000   38.20229200    7.99304900
 C  -15.61602700   36.88679600    7.90342800
 C  -13.03763900   37.49596900    8.76615100
 C  -13.45107900   36.17995100    8.67283700
 C  -14.73081000   35.85886200    8.22539500
 N  -15.05748900   34.51326500    8.09816100
 C  -16.15012900   33.96860700    7.48064000
 O  -17.21224900   34.54699400    7.29989900
 N  -16.01943800   32.64818200    7.14028000
 C  -14.86208200   31.89694300    6.90319200
 C  -14.85438200   30.53692100    7.18649700
 C  -13.71841700   29.78362900    6.92994300
 C  -12.62148400   30.42138200    6.38187500
 N  -12.61793000   31.71040400    6.07486600
 C  -13.69463500   32.43498400    6.31027000
 O  -13.73094200   33.72825300    5.91536300
 C  -12.57290100   34.48778800    5.80100200
 C  -11.54176100   34.30221300    6.71141500
 C  -10.43405100   35.12681200    6.69921000
 C  -10.36897900   36.15115700    5.77577200
 C  -11.39692000   36.32682100    4.86633100
 C  -12.52013800   35.50696600    4.84070900
 C  -13.63427300   35.70884300    3.82180700
 C  -14.92800300   36.09615700    4.55130800
 C  -13.31428200   36.82438900    2.82039500
 C  -13.84064800   34.41498200    3.02063500
 H  -15.87538500   39.00847500    7.73879200
 H  -16.61220100   36.64784400    7.57090500
 H  -12.03708300   37.70973800    9.10457700
 H  -12.75867000   35.39848400    8.94072000
 H  -14.30288000   33.87674500    8.31639100
 H  -16.89720200   32.19461200    6.92023700
 H  -15.73477400   30.08120600    7.61177300
 H  -13.69137700   28.73041400    7.15133600
 H  -11.70360300   29.89845800    6.15899800
 H  -11.60798500   33.49943200    7.42956200
 H   -9.63959300   34.97222400    7.41202600
 H   -9.52035900   36.81700600    5.75698500
 H  -11.30858600   37.13230200    4.15839300
 H  -15.71346400   36.30515700    3.82901200
 H  -15.27138500   35.29907000    5.20277400
 H  -14.76681200   36.98611500    5.15639700
 H  -14.12726400   36.89920400    2.10180700
 H  -13.22129700   37.78594000    3.31885500
 H  -12.40025800   36.61030600    2.27220700
 H  -14.60116500   34.56981600    2.25897700
 H  -12.91309000   34.12472100    2.53173200
 H  -14.16456000   33.59902500    3.65841700
54
-95.7281941534
 F  -19.15741700   35.31720800   -3.26974100
 C  -17.97892500   35.81606700   -3.69413900
 F  -18.22276600   36.39832700   -4.87166000
 F  -17.22419700   34.72790900   -3.97349800
 O  -17.42442200   36.67986400   -2.89463800
 C  -17.18296300   36.35161400   -1.53074100
 C  -17.27597200   35.07209300   -1.01403800
 C  -17.03262500   34.87830900    0.33351200
 C  -16.81277200   37.42111200   -0.73089600
 C  -16.55597000   37.21711000    0.61019300
 C  -16.69437100   35.94450900    1.16524300
 N  -16.44269900   35.67652000    2.50613200
 C  -16.49499200   36.45925000    3.62299000
 O  -15.93698000   36.08489100    4.65233400
 N  -17.12683900   37.66866100    3.60211800
 C  -18.18503000   38.16489700    2.83027400
 C  -18.29019300   39.53782700    2.64892300
 C  -19.34884900   40.06414900    1.92454800
 C  -20.28748000   39.18637900    1.41889900
 N  -20.22098300   37.87634300    1.60420200
 C  -19.21170000   37.36376200    2.28106500
 O  -19.17974800   36.03860900    2.53220400
 C  -20.01717000   35.16672200    1.84128300
 C  -20.17009400   35.31846900    0.47017200
 C  -20.91922500   34.41713900   -0.25965000
 C  -21.51499500   33.35516600    0.39286100
 C  -21.36110600   33.21013900    1.76028100
 C  -20.61661000   34.10150000    2.52700500
 C  -20.46501600   33.92319300    4.03320000
 C  -20.99051900   35.17232600    4.75514400
 C  -21.25317500   32.71969500    4.56288100
 C  -18.98511800   33.69687600    4.37283500
 H  -17.54412700   34.22699900   -1.62652700
 H  -17.11953700   33.88610400    0.74563700
 H  -16.71958100   38.39781700   -1.17399000
 H  -16.22487900   38.04415500    1.21421200
 H  -16.13887300   34.73266400    2.71223700
 H  -16.90995800   38.21830800    4.42586400
 H  -17.53917800   40.18490900    3.07516900
 H  -19.44015300   41.12515200    1.76697100
 H  -21.14388600   39.52172300    0.85312400
 H  -19.69816600   36.15388600   -0.02136400
 H  -21.02317600   34.54646100   -1.32578300
 H  -22.10262800   32.63756200   -0.15816400
 H  -21.84317100   32.37320100    2.23466200
 H  -20.92632600   35.03118900    5.83158000
 H  -20.41366300   36.05472900    4.49737900
 H  -22.03035400   35.35016900    4.48896800
 H  -21.12016100   32.65709300    5.64059000
 H  -22.31609700   32.82669800    4.36232900
 H  -20.89366600   31.79060000    4.12850400
 H  -18.87248400   33.50210700    5.43688800
 H  -18.60237800   32.84000300    3.82285100
 H  -18.38774000   34.56785500    4.12568400
54
-95.72793981151
 F   -9.83882200   35.68664000    9.91483000
 C   -9.58121900   34.44053100    9.46077100
 F   -8.26168900   34.27087500    9.56456500
 F   -9.85031200   34.50187500    8.13665100
 O  -10.20807200   33.49239400   10.09730900
 C  -11.63826100   33.58563900   10.04530600
 C  -12.31762400   32.95560700    9.01773300
 C  -13.69358000   33.06268900    8.95841500
 C  -12.30686300   34.28365800   11.03570200
 C  -13.68203000   34.39635400   10.96397000
 C  -14.38333600   33.82498300    9.90245000
 N  -15.76100600   33.99616100    9.83374800
 C  -16.58235600   34.07123400    8.74266200
 O  -17.79372500   33.92216700    8.87096900
 N  -16.04113200   34.28285400    7.50908300
 C  -14.82935500   34.88930800    7.14335000
 C  -14.14898900   34.43837600    6.02227500
 C  -12.95775100   35.04279100    5.64648800
 C  -12.49978300   36.10104000    6.40491600
 N  -13.15596100   36.57355500    7.45553700
 C  -14.28371600   36.00033600    7.82731900
 O  -14.99403500   36.50486900    8.85511400
 C  -14.49902000   37.56405000    9.61578800
 C  -13.19135500   37.51787600   10.07758800
 C  -12.69737100   38.51690900   10.89302300
 C  -13.52430100   39.56372100   11.25117700
 C  -14.82833300   39.60252200   10.79027500
 C  -15.35746300   38.61713200    9.96206400
 C  -16.79666800   38.68520400    9.46390200
 C  -17.57855300   37.48159500   10.00786700
 C  -17.51795300   39.95562000    9.92906500
 C  -16.81494100   38.68313100    7.92840800
 H  -11.77540400   32.38729500    8.27997700
 H  -14.23357100   32.54342800    8.18491200
 H  -11.75542500   34.74550600   11.83839100
 H  -14.21183200   34.95723800   11.71670800
 H  -16.25081200   34.09462900   10.71378600
 H  -16.70331300   34.13337500    6.75750800
 H  -14.55262100   33.61431700    5.45472100
 H  -12.40708000   34.69950100    4.78772600
 H  -11.57983500   36.61759000    6.17463300
 H  -12.55877400   36.69560200    9.78642000
 H  -11.67699400   38.46745300   11.23908800
 H  -13.15924700   40.35431500   11.88807300
 H  -15.44252100   40.43444800   11.08772700
 H  -18.61818800   37.53802300    9.69359700
 H  -17.16873600   36.54605800    9.64216300
 H  -17.54647300   37.47579800   11.09503300
 H  -18.53026000   39.95241600    9.53128700
 H  -17.58689600   39.99579200   11.01289600
 H  -17.01682700   40.84832000    9.56361500
 H  -17.83602000   38.79597000    7.57154700
 H  -16.21903300   39.50865100    7.54437100
 H  -16.41983900   37.75658200    7.52478100
54
-95.72783631278
 F  -14.81365600   26.84577400    7.89417100
 C  -15.22848800   27.00460300    9.17425200
 F  -15.16204100   25.78984500    9.72474000
 F  -16.53958700   27.30520100    9.07346600
 O  -14.52387500   27.83995100    9.87963300
 C  -14.61959600   29.23908900    9.63180300
 C  -15.10538200   29.77655000    8.45475400
 C  -15.17256200   31.15287500    8.32173200
 C  -14.15943100   30.05302500   10.65562700
 C  -14.23895500   31.42339300   10.51979100
 C  -14.78312100   31.98869300    9.36568400
 N  -14.87356000   33.37393800    9.27331100
 C  -15.75453900   34.16324300    8.59016400
 O  -15.49012600   35.34504400    8.38486700
 N  -16.91542300   33.63066900    8.11122900
 C  -17.64833100   32.50924600    8.52548500
 C  -18.36367200   31.77760700    7.58913300
 C  -19.10431200   30.67532000    7.99133700
 C  -19.11540800   30.35633100    9.33422000
 N  -18.47267200   31.06710500   10.25028800
 C  -17.75942500   32.11170900    9.87806900
 O  -17.15535300   32.88327500   10.80250900
 C  -17.15384600   32.51729900   12.14811600
 C  -16.82394900   31.21575100   12.49823900
 C  -16.74316200   30.84470600   13.82605100
 C  -16.98989600   31.78721000   14.80519300
 C  -17.31490700   33.08413000   14.44936400
 C  -17.41009300   33.49227900   13.12229000
 C  -17.77346800   34.92631500   12.75508900
 C  -16.60546100   35.56650600   11.99205500
 C  -19.04260800   34.93297100   11.89056300
 C  -18.05304600   35.79434800   13.98750300
 H  -15.42638200   29.15412400    7.63538300
 H  -15.51219100   31.57028700    7.38926100
 H  -13.76128200   29.60046200   11.54757700
 H  -13.90305600   32.06112800   11.32120700
 H  -14.17699800   33.90338100    9.78226300
 H  -17.38817500   34.24750600    7.46171900
 H  -18.33118000   32.07152200    6.55133500
 H  -19.65605800   30.08718900    7.27825300
 H  -19.66612400   29.51113500    9.71931100
 H  -16.63631900   30.49555600   11.71887700
 H  -16.48815000   29.82944100   14.08530300
 H  -16.93212400   31.51835900   15.84845500
 H  -17.50255000   33.79084200   15.23878900
 H  -16.83321400   36.60520100   11.76359700
 H  -15.70250200   35.53644900   12.59765600
 H  -16.41481100   35.05197000   11.05620900
 H  -19.33729900   35.95749300   11.67542100
 H  -18.88531700   34.42431400   10.94492700
 H  -19.85780400   34.43960000   12.41603100
 H  -18.31651500   36.79758400   13.66007800
 H  -18.88571800   35.40124700   14.56516500
 H  -17.17464500   35.87177600   14.62273500
