26
-75.95984594522
 C   14.14293100   30.35615500   76.31798400
 C   14.45092600   29.16182200   75.69415000
 C   13.47899100   28.33292800   75.16509000
 C   12.15768200   28.72275900   75.26115900
 C   11.80759900   29.92748200   75.87544700
 C   12.81732700   30.73542400   76.40758400
 C    7.92691800   30.36941600   76.01335800
 C    8.50051400   31.58056400   76.31310100
 C    9.91012000   31.55665700   76.28860500
 C   10.41583000   30.32279400   75.96952500
 S    9.11805200   29.17868300   75.69059400
 F   15.75779600   28.78632500   75.60294700
 C    6.47388900   30.04537600   75.99948500
 O    5.68478700   31.02719800   76.04695600
 O    6.15016200   28.84130600   75.94049800
 N    7.74496100   32.71095600   76.69741900
 S    7.63958200   32.75084900   78.38612000
 C    9.83534900   34.33348900   78.69949300
 C    9.31312400   33.06504300   78.87498000
 C   10.09535700   32.01414100   79.31506400
 C   11.43521100   32.23815000   79.57928600
 C   11.99207600   33.50266600   79.40236100
 C   11.17457000   34.54723800   78.97000600
 C   13.43917300   33.74598500   79.67958800
 O    7.21486300   31.46034500   78.90453600
 O    6.78260700   33.86901100   78.72092800
26
-75.95984452691
 C   13.13283700   31.36648300   73.44441500
 C   13.12852100   30.50940900   72.35953800
 C   11.98040800   29.87413700   71.92509700
 C   10.79932400   30.09952300   72.60575100
 C   10.76723200   30.95209100   73.71373700
 C   11.94613200   31.58399600   74.11632900
 C    7.72572200   32.12293400   75.87033300
 C    7.33985200   31.00873100   75.16653900
 C    8.35973200   30.47906600   74.34948200
 C    9.52859000   31.19143900   74.42841900
 S    9.35738600   32.53485700   75.54030100
 F   14.29516500   30.28710100   71.69113700
 C    6.88093500   32.94681900   76.77794800
 O    7.33026000   34.05354900   77.14028700
 O    5.77065900   32.44954900   77.10811200
 N    6.02045900   30.50409000   75.19529300
 S    5.15396200   31.16445300   73.90000200
 C    5.71308100   29.09777800   72.21603700
 C    5.94104300   30.43384900   72.49111100
 C    6.84978800   31.17861000   71.76360700
 C    7.55257900   30.56787500   70.73962400
 C    7.35188100   29.22122700   70.44544500
 C    6.41814600   28.49835700   71.18849500
 C    8.11424400   28.55675800   69.34660100
 O    5.31849400   32.60856600   73.85643200
 O    3.78977800   30.69714400   74.03231200
26
-75.95984229218
 C    4.31467700   22.96245300   80.90007600
 C    5.66576700   22.67544500   80.83887900
 C    6.57727300   23.53402200   80.25362100
 C    6.11968000   24.72258400   79.71790900
 C    4.76128600   25.05061000   79.76889100
 C    3.86944800   24.15330300   80.36084200
 C    2.88274700   28.11610900   78.23703300
 C    4.21913000   28.42622300   78.29559800
 C    5.01205700   27.39633100   78.84227000
 C    4.27882600   26.29548500   79.20319100
 S    2.57867000   26.54830300   78.86187900
 F    6.11452400   21.50266200   81.36844700
 C    1.79280700   28.95754600   77.67045300
 O    2.08465700   30.16113800   77.43606700
 O    0.68582800   28.41526300   77.47436800
 N    4.75005400   29.62539200   77.76881000
 S    5.24300200   29.34575400   76.17359600
 C    7.80654700   28.71501000   76.85003900
 C    6.60238100   28.22780000   76.37533300
 C    6.40114400   26.87744000   76.16133400
 C    7.42889200   25.99246400   76.43720000
 C    8.64928800   26.45219200   76.92641500
 C    8.82797400   27.82250400   77.11883500
 C    9.75760100   25.50022900   77.23569300
 O    5.69127100   30.61858800   75.64835700
 O    4.18565600   28.69473400   75.41689200
26
-75.95984189904
 C    5.99201600   40.53109700   73.37267000
 C    6.32824400   40.32804600   72.04706100
 C    6.50689800   39.06449100   71.51602500
 C    6.35016600   37.96888000   72.34309400
 C    6.01987900   38.13559900   73.69172500
 C    5.83824100   39.42814700   74.18931200
 C    5.25418800   35.44804300   76.42427700
 C    5.88373100   34.81921600   75.37847700
 C    6.22486200   35.68938900   74.32261600
 C    5.85315800   36.98741300   74.56128200
 S    5.07442600   37.12701900   76.12517800
 F    6.48346000   41.41042600   71.23366400
 C    4.72488600   34.81483000   77.66346400
 O    3.97445800   35.50047300   78.38795100
 O    5.08614100   33.62657700   77.87843000
 N    6.08229200   33.42096000   75.33304300
 S    4.78736200   32.71139300   74.50522300
 C    4.21147900   34.37630300   72.42423500
 C    4.99616700   33.32367500   72.85597800
 C    6.01722200   32.81294800   72.07558700
 C    6.25608100   33.37790200   70.83602900
 C    5.49044500   34.45123300   70.38002600
 C    4.46124400   34.93638400   71.18374200
 C    5.76874300   35.06031200   69.04522000
 O    3.51893800   33.17833000   75.04122700
 O    4.99621100   31.27949900   74.55866200
26
-75.95984090867
 C    4.96457100   38.25651400   68.16669300
 C    4.45230400   39.50961400   67.88768500
 C    3.89604200   40.31435800   68.86462700
 C    3.84812200   39.83933100   70.16047800
 C    4.34653900   38.57416100   70.47980100
 C    4.91064700   37.79221600   69.46688000
 C    4.11374000   37.88621900   74.32015400
 C    4.38349800   36.69475700   73.69322800
 C    4.48327900   36.80695600   72.29123300
 C    4.29072600   38.08909300   71.84509100
 S    3.97414900   39.16789000   73.18936500
 F    4.50308500   39.96946900   66.60578200
 C    3.99664300   38.12123800   75.78566900
 O    3.90981100   37.09240200   76.50854400
 O    3.99174700   39.30465400   76.18270300
 N    4.62889300   35.49574200   74.39958100
 S    6.29712100   35.33742400   74.64052600
 C    6.69754100   33.89926100   72.36017700
 C    6.90910900   35.11032000   72.99360400
 C    7.48224000   36.18180800   72.33531600
 C    7.84470100   36.03925800   71.00736400
 C    7.63340000   34.83541000   70.33923300
 C    7.06668900   33.76653400   71.03407300
 C    8.01331900   34.68156300   68.90321000
 O    6.48963800   34.14308300   75.43638300
 O    6.85249700   36.55843500   75.20179400
26
-75.95984046014
 C    2.55327300   26.29252500   67.47002500
 C    3.77922100   26.42939200   66.84553700
 C    4.71495200   27.36169500   67.25247700
 C    4.40841000   28.18882300   68.31597400
 C    3.17456700   28.08599500   68.96600800
 C    2.25860100   27.12493900   68.53171300
 C    1.85371500   29.97842800   72.12008200
 C    2.92770600   30.67779100   71.62713500
 C    3.49459900   30.09831100   70.47348900
 C    2.85204000   28.95156900   70.08361900
 S    1.52038200   28.59363800   71.16533600
 F    4.07869800   25.61299600   65.79620200
 C    1.06798500   30.29146700   73.34553400
 O    1.25347500   31.43212800   73.84852000
 O    0.29344200   29.41231400   73.77598200
 N    3.46453600   31.81311600   72.27505000
 S    4.70873000   31.31300400   73.30832500
 C    6.06514700   29.36744200   71.96405500
 C    5.94177000   30.72705800   72.17935400
 C    6.67766500   31.64562600   71.45333800
 C    7.55318700   31.18483200   70.48705800
 C    7.68856400   29.81893200   70.23763000
 C    6.94173600   28.91728500   70.99245700
 C    8.62978700   29.33709000   69.18311900
 O    4.26372500   30.21747400   74.15445100
 O    5.16519800   32.49497400   74.00935900
26
-75.95984012778
 C   11.24615400   32.56825000   70.08969000
 C   11.39116200   31.30989700   69.53552300
 C   10.51834400   30.27507500   69.81441000
 C    9.46030300   30.51237000   70.67079900
 C    9.27573000   31.77533700   71.24212300
 C   10.18523900   32.79287000   70.94467600
 C    6.63298400   32.96010300   73.86573900
 C    6.17980500   31.78925200   73.30963800
 C    7.04669000   31.25844600   72.33238800
 C    8.16662700   32.02595600   72.14188900
 S    8.13680800   33.43055200   73.18919000
 F   12.43430200   31.07927000   68.68942200
 C    5.98505800   33.74497100   74.95253100
 O    4.79655500   33.43166000   75.23204300
 O    6.65840200   34.64378800   75.49720500
 N    5.00323100   31.14015900   73.74662300
 S    5.41420800   29.99571500   74.92376200
 C    7.71249300   28.80996000   74.05826800
 C    6.33228100   28.79734000   73.99691500
 C    5.65189000   27.94628800   73.14477300
 C    6.37796700   27.09236600   72.33544200
 C    7.77324700   27.09241200   72.36533700
 C    8.42982900   27.95378200   73.24048300
 C    8.53932900   26.18084900   71.46390700
 O    4.17029800   29.43512200   75.40878800
 O    6.27059300   30.58825200   75.93854300
26
-75.95982815785
 C    7.15653400   40.51472800   70.85084400
 C    6.89952000   41.87081200   70.92585500
 C    6.44497800   42.47324000   72.08424500
 C    6.23619600   41.68446400   73.19843000
 C    6.47550900   40.30893600   73.15892500
 C    6.94376900   39.73609000   71.97220100
 C    5.90334700   38.66933900   76.66036500
 C    5.98373300   37.66217100   75.73059300
 C    6.18173400   38.12690700   74.41409400
 C    6.25428800   39.49388200   74.33753100
 S    6.06688000   40.21050400   75.92592400
 F    7.10712300   42.64090200   69.82082000
 C    5.74614300   38.51837300   78.13321300
 O    5.93658200   39.52806500   78.84186000
 O    5.42843500   37.36955000   78.54325100
 N    5.96188000   36.29331100   76.08013000
 S    7.55371400   35.75066400   76.26700500
 C    7.79194800   34.94221700   73.67524600
 C    8.20052500   35.86403100   74.62157400
 C    9.00871300   36.93457800   74.28836600
 C    9.41138300   37.08926700   72.97369000
 C    9.00754400   36.18257200   71.99600000
 C    8.20326100   35.10416500   72.36464100
 C    9.43755000   36.35246900   70.57606300
 O    7.47324700   34.37126800   76.70022700
 O    8.29834700   36.63896300   77.14492600
26
-75.95982701189
 C   10.15934500   27.39916800   77.46104500
 C    9.60401300   26.28338400   76.86255400
 C    8.33447300   26.29358500   76.31604500
 C    7.59448000   27.45870900   76.37873800
 C    8.11934500   28.60418500   76.98535300
 C    9.41009900   28.55785100   77.51723200
 C    6.60006100   32.19410400   77.26646400
 C    5.58184700   31.32827700   76.95158700
 C    6.00135700   29.98760300   76.82947600
 C    7.34497600   29.82827600   77.05100300
 S    8.09482400   31.36788700   77.42274200
 F   10.33522100   25.13484000   76.80393700
 C    6.50435900   33.67219000   77.41704100
 O    5.33984400   34.14898400   77.49077000
 O    7.57052200   34.31980200   77.45991500
 N    4.26350400   31.76137100   76.68539400
 S    4.09337100   31.99987900   75.01802100
 C    3.18904000   29.47332300   74.54295700
 C    4.23914400   30.35682000   74.37227000
 C    5.43903800   29.95706100   73.81503200
 C    5.59371700   28.63774700   73.42703200
 C    4.55811300   27.72172400   73.59730400
 C    3.35319200   28.15790200   74.14879200
 C    4.72575000   26.29519200   73.18856300
 O    5.17660800   32.82300900   74.50477500
 O    2.76010700   32.52470000   74.80874100
26
-75.95982181166
 C    6.51099500   36.78455000   82.72038300
 C    6.53037800   35.87520500   83.76168200
 C    6.76672400   34.52819600   83.56126800
 C    6.99813200   34.07938000   82.27514800
 C    6.99517200   34.97118300   81.19803000
 C    6.74325800   36.32380800   81.43943900
 C    7.36480500   34.26328100   77.37238100
 C    7.81203800   33.15676900   78.05131100
 C    7.74046700   33.29020300   79.45326500
 C    7.23452300   34.50210800   79.84713800
 S    6.85013800   35.49154800   78.45255700
 F    6.30289200   36.32074000   85.02940600
 C    7.26344900   34.42835900   75.89601400
 O    6.60902700   35.40067600   75.46670400
 O    7.85607100   33.56232300   75.19794500
 N    8.21417000   31.96920500   77.39937400
 S    6.88424300   30.92735700   77.29431200
 C    7.43333100   29.65705500   79.64220800
 C    6.57287300   30.52155000   78.99047600
 C    5.54929200   31.16593800   79.65918500
 C    5.38844700   30.94459100   81.01566600
 C    6.24624100   30.08771400   81.70167600
 C    7.26129900   29.44003800   80.99718800
 C    6.07936900   29.85399100   83.16714000
 O    7.32627700   29.76436600   76.55327800
 O    5.73220200   31.62020200   76.74032500
26
-75.95982073646
 C   13.16178400   31.70231800   72.82784500
 C   12.96651700   31.31270400   71.51613500
 C   11.70530800   31.16864400   70.96827800
 C   10.60754100   31.41807600   71.76813600
 C   10.76428800   31.80377000   73.10138900
 C   12.05554600   31.94824900   73.61831100
 C    7.31590300   32.56710800   74.77401500
 C    8.25368300   32.45781600   75.77112500
 C    9.54977700   32.17213500   75.29498600
 C    9.60258700   32.06351600   73.92930300
 S    8.01595900   32.31381700   73.22894700
 F   14.05576200   31.06790500   70.73453400
 C    5.87594800   32.90992500   74.93249500
 O    5.23384500   33.20174500   73.90268100
 O    5.42206100   32.87489500   76.10805100
 N    7.95554400   32.69873300   77.13096600
 S    8.30487300   34.31441000   77.49205800
 C   10.63782500   34.89598900   76.20507100
 C   10.06979400   34.37270900   77.35071500
 C   10.84022600   33.79247800   78.34231900
 C   12.21125000   33.73555600   78.17407000
 C   12.81212200   34.24284900   77.02108700
 C   12.01135400   34.82994000   76.04484000
 C   14.29233600   34.14729800   76.84683500
 O    7.88614900   34.53247000   78.86100500
 O    7.70745300   35.20107600   76.50639100
26
-75.95981927115
 C   11.86808200   27.82405000   74.94444100
 C   11.73348100   27.15320900   73.74346000
 C   10.61040700   27.28217400   72.94743400
 C    9.59531000   28.11710200   73.37112100
 C    9.69848700   28.81868700   74.57451400
 C   10.84563200   28.65651300   75.35763500
 C    6.43549900   30.83500600   75.32313300
 C    7.41489300   31.28663100   76.17306400
 C    8.65521200   30.63959600   75.99582500
 C    8.62311600   29.68940300   75.00796800
 S    7.02870100   29.60507000   74.28581200
 F   12.74052500   26.33167600   73.33333200
 C    5.01285200   31.27212000   75.28227000
 O    4.21557100   30.58398000   74.61227200
 O    4.73235500   32.31379400   75.93416900
 N    7.16942100   32.24075000   77.18598000
 S    6.80022900   31.42810200   78.62433700
 C    9.37980800   31.38733300   79.50183500
 C    8.32900600   30.62664900   79.02262400
 C    8.47757600   29.28190400   78.74047100
 C    9.71136900   28.68638700   78.93601700
 C   10.79149900   29.42921600   79.40712900
 C   10.60759000   30.78150000   79.69675600
 C   12.12648300   28.79160400   79.61052500
 O    5.76999800   30.42714200   78.39822500
 O    6.47580400   32.44487000   79.60296700
26
-75.95981720357
 C   -0.25345100   32.35808100   77.40354700
 C   -1.18908200   32.63385500   76.42419700
 C   -0.82975500   33.04491800   75.15404200
 C    0.51312200   33.17583700   74.85948100
 C    1.48826700   32.89665600   75.81959000
 C    1.08702200   32.49202400   77.09654900
 C    5.07475600   33.66487300   74.47124500
 C    5.20480100   32.90396900   75.60674000
 C    3.97099200   32.54847800   76.18993000
 C    2.89485800   33.04064900   75.49748300
 S    3.42557900   33.95162000   74.09810200
 F   -2.51204100   32.50167600   76.72379600
 C    6.17286000   34.24532900   73.65033400
 O    5.86584800   35.10424500   72.79831100
 O    7.33313300   33.81400800   73.88844800
 N    6.45823200   32.58938300   76.17722600
 S    6.82734000   33.74268600   77.36007700
 C    4.50939400   34.21899200   78.71532100
 C    5.62506900   33.40993000   78.61770600
 C    5.77444200   32.28240300   79.40493400
 C    4.77708200   31.96197200   80.30705700
 C    3.63225600   32.75239800   80.41842800
 C    3.51471300   33.88662500   79.61914600
 C    2.55394700   32.37311000   81.37956500
 O    6.63245400   35.08829300   76.84444300
 O    8.16475500   33.44223300   77.82707200
26
-75.95981618782
 C    7.78160500   33.04119100   70.58193700
 C    6.99765400   32.10120600   69.93900000
 C    6.05146800   31.34703800   70.60720200
 C    5.88059300   31.54765100   71.96352500
 C    6.64905300   32.49613000   72.64567700
 C    7.60226600   33.23183600   71.93791300
 C    6.76764400   33.31922100   76.46399100
 C    5.59966400   32.64151500   76.21475200
 C    5.43077700   32.29247000   74.85894900
 C    6.47373900   32.70439700   74.06999000
 S    7.67757300   33.54314800   75.02784100
 F    7.16755500   31.90629300   68.60092500
 C    7.26894700   33.78335400   77.78686400
 O    8.45665700   34.16141600   77.85487400
 O    6.44039500   33.75571900   78.73620000
 N    4.70663700   32.25292300   77.23852200
 S    5.09652800   30.68179200   77.73411700
 C    5.69180100   29.30850900   75.45478000
 C    4.68471700   29.70855200   76.31203400
 C    3.35302500   29.46135600   76.03125300
 C    3.02940800   28.80256700   74.85973000
 C    4.02385400   28.40053800   73.96692800
 C    5.35640900   28.65326200   74.28228500
 C    3.65075300   27.71658700   72.69276500
 O    4.22388200   30.36871300   78.84637200
 O    6.52050500   30.56918500   78.00566100
26
-75.95980626553
 C   12.97195700   31.82384700   72.79440800
 C   12.95645700   30.65542600   72.05613400
 C   11.85383100   29.82234100   72.01480100
 C   10.73547700   30.17356600   72.74491800
 C   10.71663500   31.34127200   73.51104400
 C   11.84724900   32.16414100   73.52127300
 C    7.21961500   31.89789000   75.16500600
 C    8.11512300   32.73954700   75.77748900
 C    9.42706900   32.62883900   75.27245700
 C    9.53442200   31.69890900   74.27078800
 S    7.98193000   30.94926500   73.95664100
 F   14.06497600   30.31651000   71.33951500
 C    5.75666300   31.80363200   75.42557500
 O    5.33880200   32.38212900   76.46453100
 O    5.06335900   31.16571400   74.60685200
 N    7.73126200   33.68790000   76.75202600
 S    7.41185800   35.16173300   75.98273300
 C    9.32539300   35.43640900   74.06077000
 C    9.00900600   35.64672400   75.38929300
 C    9.94430900   36.12150900   76.29096900
 C   11.22571800   36.38717600   75.84497200
 C   11.57852400   36.17085000   74.51221800
 C   10.61254400   35.70132200   73.62580400
 C   12.97369500   36.44322500   74.05425800
 O    6.94010400   36.07013700   77.00704200
 O    6.51253800   34.96806200   74.85657800
26
-75.9597251011
 C    0.87394500   30.07537700   79.82590100
 C   -0.28028500   29.91307500   79.08301000
 C   -0.28933500   30.00035100   77.70325000
 C    0.90199900   30.25187000   77.05162100
 C    2.09082700   30.41129600   77.76709200
 C    2.05982400   30.32575500   79.16243700
 C    5.06384300   31.32945100   75.40359300
 C    5.58956300   30.94188400   76.61143200
 C    4.61169100   30.57238500   77.55772200
 C    3.33442900   30.67844800   77.07062800
 S    3.35136700   31.23767200   75.41041400
 F   -1.45105800   29.66479700   79.73479000
 C    5.81407100   31.83198600   74.22003200
 O    7.06424400   31.67293600   74.24501100
 O    5.15699800   32.36718500   73.30355600
 N    6.97189500   30.99806800   76.89703700
 S    7.31758600   32.47627000   77.64563400
 C    5.30357500   32.91033200   79.43477800
 C    6.53005200   32.30932900   79.22403300
 C    7.11246600   31.49684600   80.17961200
 C    6.44451100   31.28315700   81.37135800
 C    5.19927100   31.86603400   81.60758800
 C    4.64152900   32.68617700   80.62951400
 C    4.47077600   31.58973400   82.88177300
 O    6.71272700   33.57647300   76.91203100
 O    8.75695600   32.54077300   77.79020800
26
-75.95847276723
 C   10.14074600   29.87195200   77.99774000
 C   10.90028100   29.57956700   76.88012500
 C   10.33450200   29.38853800   75.63372400
 C    8.96266100   29.49014300   75.50495800
 C    8.16018500   29.77938400   76.61312200
 C    8.77105300   29.97082900   77.85543000
 C    4.28986300   30.23079700   76.91234200
 C    4.57198300   29.87416600   75.61478800
 C    5.94599100   29.68029000   75.37060800
 C    6.71994200   29.88372500   76.48513900
 S    5.72108500   30.31976700   77.85441800
 F   12.25315500   29.47755100   77.01041000
 C    2.96140100   30.60355600   77.47610900
 O    2.93100300   31.05710300   78.63576300
 O    1.97140800   30.44967400   76.70948600
 N    3.58064300   29.79578400   74.61845100
 S    3.72672800   31.06181900   73.52659600
 C    5.37266400   32.84159000   74.78463100
 C    4.06211000   32.48295200   74.53475600
 C    3.00802200   33.09022200   75.18934200
 C    3.27725600   34.08142600   76.11463300
 C    4.59044400   34.44952500   76.40360300
 C    5.63147400   33.82817100   75.71929000
 C    4.86718600   35.47558000   77.45363000
 O    2.45852200   31.17490600   72.83741100
 O    4.86584400   30.77795400   72.67812700
26
-75.95846774407
 C    3.89150600   38.92763800   72.21341500
 C    4.17679900   40.24932800   71.92732300
 C    5.00027600   41.01649800   72.73037800
 C    5.54824100   40.43587400   73.85677200
 C    5.27902100   39.10413500   74.18401900
 C    4.44601500   38.35871300   73.34378100
 C    7.16241800   38.09412300   77.45581100
 C    6.40241000   37.01889400   77.05985200
 C    5.66709400   37.25355500   75.88113500
 C    5.86009300   38.51350400   75.37354500
 S    6.96870400   39.41767200   76.38123100
 F    3.62879500   40.81398500   70.81450500
 C    8.12469600   38.14929400   78.59228000
 O    8.15829900   37.13353700   79.33993800
 O    8.83493300   39.16690000   78.70076100
 N    6.43379700   35.78193700   77.73046600
 S    7.19572400   34.61363600   76.79616100
 C    8.42620600   35.99667800   74.78499400
 C    8.56467400   35.46324500   76.05182500
 C    9.67711500   35.72258800   76.82886200
 C   10.67365700   36.53511100   76.32050900
 C   10.55250200   37.10403400   75.05354700
 C    9.42533300   36.81496800   74.28917100
 C   11.60640200   38.03196600   74.54373400
 O    6.26138600   34.19379100   75.77185100
 O    7.63082500   33.56738400   77.69725300
26
-75.95846473676
 C   10.97812400   30.40670300   74.49185400
 C   10.51020800   29.27439700   73.85231800
 C    9.27077400   28.72896900   74.13126200
 C    8.48134200   29.34142800   75.08402700
 C    8.91984100   30.48603600   75.75547400
 C   10.17838000   31.00977900   75.44346700
 C    6.21002100   31.69333600   78.29918400
 C    7.27411900   32.56073600   78.37656100
 C    8.32955400   32.23546000   77.50168900
 C    8.07627800   31.11350100   76.75358000
 S    6.50380900   30.45511700   77.14872400
 F   11.29779100   28.67668600   72.91419600
 C    4.90238500   31.80485300   79.00540200
 O    3.99797400   31.01389700   78.67680700
 O    4.81474800   32.72109200   79.86817800
 N    7.25767500   33.70786500   79.19253100
 S    7.13965600   35.10071700   78.26226700
 C    4.62582400   34.68816900   77.31334000
 C    5.96967500   34.68821100   76.99330700
 C    6.42551300   34.20474000   75.78196100
 C    5.51110200   33.70146300   74.87413400
 C    4.15177500   33.67589400   75.17412700
 C    3.71941500   34.19158000   76.39498400
 C    3.16806400   33.07934300   74.22117800
 O    8.44061500   35.34482400   77.67388000
 O    6.65074600   36.15057500   79.13099400
26
-75.95845994279
 C   11.48050900   34.20759300   85.31558300
 C   12.83140600   34.43761800   85.49524400
 C   13.65402000   34.84495600   84.46142200
 C   13.09785200   35.02949500   83.21131200
 C   11.73517400   34.81230500   82.98994200
 C   10.93646300   34.39589600   84.05963500
 C   10.83898300   35.46124000   79.24196700
 C    9.67003300   35.18610400   79.91165200
 C    9.85530100   34.92973300   81.28458800
 C   11.16925100   35.01387200   81.67050900
 S   12.18516300   35.42030900   80.30468900
 F   13.37016900   34.25446400   86.73375200
 C   11.00963800   35.67780700   77.77713700
 O    9.94774300   35.74298200   77.09942600
 O   12.17159300   35.75099500   77.33446300
 N    8.42668200   35.09292300   79.25776400
 S    7.90688500   33.49858100   79.18466800
 C    9.75257500   32.55430500   77.42574000
 C    9.35756000   32.57465900   78.74912500
 C   10.15066500   32.04698300   79.74983000
 C   11.37202800   31.49107900   79.41416400
 C   11.80173700   31.46577000   78.09004000
 C   10.97090200   31.98763600   77.09995600
 C   13.14413400   30.91693300   77.73130100
 O    6.89358700   33.43050300   78.15296400
 O    7.46133500   33.12359500   80.51101600
26
-75.95845726097
 C    5.68075300   40.04001800   78.94757200
 C    5.00595700   40.50071300   80.06223200
 C    5.03441200   39.83014400   81.27097000
 C    5.76634400   38.66285700   81.35906600
 C    6.46547100   38.16585900   80.25567400
 C    6.40975200   38.87077900   79.04921800
 C    8.30580900   34.84876600   81.19407400
 C    8.57806200   35.12046800   79.87392400
 C    7.96864700   36.30118500   79.40535400
 C    7.22931000   36.93896200   80.36934200
 S    7.29811700   36.05644400   81.87887300
 F    4.28762900   41.65494900   79.96510600
 C    8.70567600   33.63872200   81.96690900
 O    8.21934400   33.49169700   83.10417000
 O    9.49218100   32.84350800   81.38345900
 N    9.32313500   34.24674400   79.05922900
 S    8.33118900   33.48487700   77.93904700
 C    6.89731800   31.97436100   79.68584300
 C    6.86530800   33.07472000   78.85111000
 C    5.79824000   33.95220900   78.85056300
 C    4.74237400   33.72431000   79.71488300
 C    4.75291300   32.63167800   80.57749700
 C    5.83276000   31.75077500   80.53903500
 C    3.64302800   32.41383600   81.55345500
 O    9.03458300   32.30426000   77.48374900
 O    8.01660700   34.45061800   76.90630100
26
-75.95845685626
 C   -0.79812500   37.01302700   76.51978500
 C   -0.33775300   37.81019100   75.48825300
 C    0.53482500   37.33912200   74.52557700
 C    0.95772600   36.02583300   74.59873300
 C    0.51246200   35.18776700   75.62584600
 C   -0.36737300   35.70281800   76.58181300
 C    1.30674000   31.43896200   76.39042600
 C    2.02116700   31.79928300   75.27220000
 C    1.82338500   33.13965100   74.88583900
 C    0.95201000   33.80867500   75.70802200
 S    0.37062300   32.75170900   76.97580300
 F   -0.75749700   39.10500000   75.41769800
 C    1.36216400   30.13819200   77.11593500
 O    2.03483500   29.22453900   76.56456000
 O    0.77057400   30.05999700   78.20926000
 N    2.92309400   30.92462400   74.63671800
 S    4.51016900   31.39074700   74.92230500
 C    4.30867300   33.12340200   77.02365800
 C    4.54686400   31.81631000   76.64430200
 C    4.63651900   30.79780200   77.57281700
 C    4.48659800   31.09984100   78.91373400
 C    4.22427700   32.40545100   79.32506300
 C    4.15013300   33.41304000   78.36686300
 C    3.99565800   32.70664400   80.77037100
 O    4.77194800   32.56540300   74.11602600
 O    5.34611300   30.24533100   74.63094400
26
-75.95845647353
 C   12.98239400   32.78237700   75.23161500
 C   13.19828300   31.59742500   74.55280900
 C   12.16618200   30.74210500   74.21631500
 C   10.87659300   31.08468000   74.57492100
 C   10.61843500   32.27317500   75.26512600
 C   11.68906200   33.11319800   75.58352000
 C    7.26269300   33.79333000   76.56852400
 C    6.96659000   32.61797200   75.91938000
 C    8.09924600   31.96353200   75.39602900
 C    9.26804400   32.63701300   75.64703300
 S    8.95008300   34.10223600   76.54972900
 F   14.47164500   31.26060700   74.20253800
 C    6.29917600   34.77225700   77.14691800
 O    5.08748000   34.42114000   77.15076900
 O    6.75232800   35.85888100   77.55368100
 N    5.64566100   32.16842700   75.73366200
 S    5.18573700   32.30661500   74.12516200
 C    7.07165500   33.94418000   73.01680100
 C    5.82605200   33.87948800   73.61099200
 C    5.13725200   35.02014800   73.97493900
 C    5.71190800   36.25427700   73.73351100
 C    6.97590600   36.35077000   73.15381000
 C    7.64142300   35.18376700   72.78799400
 C    7.61245400   37.68823200   72.95911700
 O    3.73863900   32.27602500   74.09476100
 O    5.83961600   31.24277600   73.39101300
26
-75.9584534952
 C   11.89365600   31.75806900   75.22453500
 C   12.07177500   30.66012400   74.40338900
 C   11.03108300   30.09716700   73.68917200
 C    9.77207000   30.65543400   73.79938600
 C    9.55309000   31.76921000   74.61617000
 C   10.63066600   32.30635300   75.32575100
 C    6.28554200   33.77247000   75.37816100
 C    5.97768400   32.80422400   74.45166600
 C    7.07850400   32.00389800   74.08753100
 C    8.23500100   32.36137000   74.73344000
 S    7.94617300   33.71459400   75.80480300
 F   13.31519200   30.11260100   74.29480300
 C    5.34606900   34.72176900   76.03921300
 O    5.79528800   35.43706500   76.95481900
 O    4.15461800   34.70117600   75.62522000
 N    4.66717600   32.59462700   73.98323000
 S    4.03892400   31.15583300   74.57623400
 C    3.86085800   31.87945600   77.19032600
 C    4.55293500   31.11184100   76.27411800
 C    5.72304700   30.45970100   76.61266100
 C    6.21233000   30.58617300   77.90008600
 C    5.54217800   31.36188900   78.84271100
 C    4.35395900   31.99199200   78.47729700
 C    6.10111000   31.54511000   80.21589800
 O    4.66028500   30.07150400   73.84386600
 O    2.59944400   31.23882800   74.44850600
26
-75.95845066365
 C   -0.12627000   38.02239500   76.91060800
 C   -0.48366300   36.92020000   77.66483800
 C    0.07701800   35.67361400   77.46036800
 C    1.02325500   35.52688600   76.46437500
 C    1.40654100   36.61688000   75.67663000
 C    0.82040400   37.86226100   75.91849700
 C    4.03142900   36.87793500   72.79359800
 C    3.91910900   35.55206200   73.14033900
 C    2.99775800   35.31881200   74.18034700
 C    2.39633900   36.46793200   74.62788800
 S    2.98612600   37.85551600   73.73962100
 F   -1.41898600   37.06725400   78.64528200
 C    4.98064700   37.47536600   71.81175300
 O    5.05245700   38.71771000   71.75847500
 O    5.65799200   36.65910000   71.12907300
 N    4.71396800   34.54711500   72.55688300
 S    5.86344600   33.98524400   73.64317200
 C    7.45031200   36.19126300   73.74563800
 C    6.50061700   35.44802000   74.41897300
 C    5.91913900   35.90301600   75.58670700
 C    6.29608700   37.13636200   76.08693300
 C    7.24297300   37.91291800   75.42445600
 C    7.82687200   37.41835600   74.25936200
 C    7.61164000   39.26910900   75.93133100
 O    6.87731800   33.30053000   72.86924900
 O    5.17668800   33.16596000   74.62067100
26
-75.95845002458
 C   -0.65109200   34.28435800   69.62387600
 C   -0.07257000   35.51373500   69.36837200
 C    1.23151400   35.80307600   69.72300500
 C    1.98125200   34.82584400   70.34889400
 C    1.43349200   33.56748300   70.61751400
 C    0.10887300   33.31642300   70.24987900
 C    2.98041700   30.44049100   72.37821000
 C    3.97890300   31.37373100   72.22615900
 C    3.54900000   32.56099200   71.60125200
 C    2.21834000   32.53643000   71.26774200
 S    1.49587500   31.01340400   71.73685000
 F   -0.81354700   36.47506400   68.74820900
 C    3.07240600   29.12903800   73.08078100
 O    2.01595500   28.49618100   73.26623900
 O    4.22562300   28.78148700   73.45605500
 N    5.28017600   31.17905200   72.72770100
 S    5.55985100   32.16308200   74.05879100
 C    3.06977100   33.00308300   74.80612900
 C    4.06326900   32.06453000   75.00675000
 C    3.85595800   30.94705100   75.79227200
 C    2.62265000   30.76976800   76.39104500
 C    1.59398100   31.68904800   76.18969500
 C    1.83645700   32.81162000   75.40300800
 C    0.24721200   31.44856300   76.78999900
 O    5.74703300   33.51394100   73.57050200
 O    6.68983400   31.60376000   74.76994500
26
-75.95842732667
 C   12.57694900   31.06319500   73.30413600
 C   12.41840300   29.90250800   72.57080700
 C   11.25935600   29.15051600   72.62177200
 C   10.22908700   29.58325300   73.43253400
 C   10.34818600   30.75447900   74.18573600
 C   11.53817000   31.48527700   74.11139200
 C    7.09457900   31.38014400   76.25818700
 C    7.95786000   32.42088800   76.50744100
 C    9.18002900   32.31620800   75.81448300
 C    9.25377200   31.19375600   75.02882700
 S    7.77842200   30.26054500   75.15268100
 F   13.44050900   29.48538700   71.77148400
 C    5.77361100   31.13071500   76.90155900
 O    5.34816900   32.04043900   77.66503300
 O    5.20912300   30.04626800   76.66281900
 N    7.66782200   33.43998000   77.43397800
 S    8.63878600   33.30373700   78.79668800
 C    9.74493600   30.81096200   78.62217300
 C    8.70020300   31.56105300   79.12598000
 C    7.60675500   30.96781200   79.72745800
 C    7.56390100   29.58983800   79.82626400
 C    8.59441600   28.80533200   79.30914200
 C    9.68837300   29.43182500   78.71947400
 C    8.50569900   27.31575300   79.38305700
 O    7.98105700   34.03405100   79.85966300
 O    9.95856000   33.78576900   78.44433100
26
-75.95842305764
 C    9.26596500   33.67654000   72.43091100
 C    8.44899600   33.65992100   71.31631000
 C    7.07017100   33.69324500   71.41217500
 C    6.49874100   33.74884700   72.66777800
 C    7.29045500   33.77283400   73.81925900
 C    8.68147700   33.73245100   73.68156500
 C    5.04443400   33.92082400   77.01376900
 C    6.35720100   33.94861700   77.42189200
 C    7.27874900   33.89883700   76.35729700
 C    6.67120400   33.83694400   75.12856700
 S    4.92999200   33.84502900   75.30378600
 F    9.02323400   33.60687700   70.08129700
 C    3.83231800   33.85732800   77.87909500
 O    2.73450600   33.66347700   77.32340900
 O    4.02962800   33.98026700   79.11882000
 N    6.72773700   33.94609600   78.77979300
 S    7.38484500   32.46645000   79.22107700
 C    6.64270500   30.78876200   77.19745200
 C    6.32925100   31.26323900   78.45617600
 C    5.12667900   30.96092400   79.06554300
 C    4.22056900   30.16079700   78.39558100
 C    4.50081000   29.68269000   77.11601500
 C    5.72461400   29.99575500   76.53182300
 C    3.48614500   28.86238600   76.38810800
 O    7.32795300   32.39239200   80.66589700
 O    8.71463200   32.39172800   78.65189600
26
-75.95830906804
 C    4.20704800   25.67400800   69.93866100
 C    4.08825400   24.88752700   71.06954000
 C    4.49927400   25.32129200   72.31578600
 C    5.05168900   26.58245800   72.43054800
 C    5.19432800   27.40492500   71.30865200
 C    4.76082400   26.93222500   70.06703200
 C    6.58626900   31.04203100   70.97856800
 C    6.79277300   30.62869300   72.27342200
 C    6.33333700   29.32097300   72.52718200
 C    5.77639000   28.72759000   71.42283400
 S    5.83373200   29.81059300   70.04946500
 F    3.54529800   23.64291800   70.95309400
 C    6.87067000   32.38625500   70.40283000
 O    7.41532000   33.21825300   71.17995600
 O    6.53262200   32.59541700   69.22213700
 N    7.33727100   31.47044900   73.25861800
 S    6.20680200   31.82903500   74.44511500
 C    4.48454100   33.12939700   72.79484100
 C    4.67291700   32.00134700   73.56776200
 C    3.77668100   30.94871200   73.54378700
 C    2.66746800   31.03291100   72.72452000
 C    2.45361100   32.15665600   71.92690800
 C    3.36642800   33.20616800   71.98192100
 C    1.26162100   32.21507600   71.02833400
 O    6.62113000   33.07115500   75.06319000
 O    6.13230700   30.69264500   75.34064000
26
-75.95829535837
 C   10.82494200   33.78481300   75.49368600
 C   11.47463800   32.80685700   74.76364000
 C   10.78944700   31.84900800   74.04024100
 C    9.40812100   31.87669100   74.04453800
 C    8.71542200   32.85503300   74.76455600
 C    9.44432600   33.80137400   75.48965200
 C    4.87686800   33.40200200   75.25577400
 C    5.04430100   32.43735400   74.29047400
 C    6.39506200   32.14495800   74.01506000
 C    7.26615100   32.89035100   74.76800000
 S    6.39107800   33.97584900   75.82537800
 F   12.83732000   32.78380700   74.75870800
 C    3.59347800   33.87701000   75.84491400
 O    2.54129100   33.38221000   75.35409200
 O    3.65285200   34.69640600   76.78135000
 N    3.96290400   31.75978600   73.70126700
 S    3.95961400   30.13623800   74.12481800
 C    3.59648400   30.55151100   76.78429600
 C    4.48238700   30.11143500   75.82134800
 C    5.79546300   29.80764600   76.12934600
 C    6.22631000   29.94894300   77.43440800
 C    5.35676200   30.39749500   78.42795200
 C    4.03725900   30.68495200   78.08994100
 C    5.85092500   30.56812100   79.82742300
 O    4.94491500   29.46501200   73.30181900
 O    2.60140000   29.65967600   73.96748800
26
-75.95826655629
 C    9.51823300   28.01831800   80.63068400
 C    9.80809600   27.71553900   81.94777900
 C    9.55549600   28.59909900   82.98074600
 C    8.98795000   29.82086800   82.67815000
 C    8.67194700   30.16054200   81.36013700
 C    8.95043200   29.24422900   80.34142800
 C    7.25045800   33.79629900   81.16490200
 C    7.08533300   33.21276900   79.93101300
 C    7.55072500   31.88356600   79.87010200
 C    8.07581500   31.44704400   81.05937900
 S    7.96864700   32.70038700   82.27506200
 F   10.36526000   26.50587800   82.23649400
 C    6.96497000   35.20818500   81.54227800
 O    6.51288600   35.94622500   80.62321200
 O    7.21685600   35.56053800   82.71071600
 N    6.57662000   33.90783100   78.82478000
 S    7.66167100   33.94975500   77.54685500
 C   10.08590900   32.83910100   78.18861800
 C    9.26728000   33.94426600   78.30807700
 C    9.59746900   35.00378400   79.13293900
 C   10.77436800   34.94673700   79.85588000
 C   11.61400000   33.83636100   79.76623500
 C   11.26230200   32.79247800   78.91589600
 C   12.85839900   33.77401600   80.58975800
 O    7.40765200   35.17518400   76.81755100
 O    7.49152400   32.73493300   76.77565100
