  39
        -63.33355753
 C          6.0135934903       -0.6627918945        0.0005049212
 C          5.1628330213       -1.7558579696       -0.0152351899
 C          3.7922992074       -1.5752674402       -0.0231312899
 C          3.2535912075       -0.2881185738       -0.0154209297
 C          4.1189660606        0.8077953196        0.0021465723
 C          5.4864545415        0.6196741202        0.0099179989
 C          1.8246334865       -0.0487839048       -0.0256652786
 N          0.8723642070       -1.0219090694       -0.0830433618
 C         -0.3533499901       -0.4172018768       -0.0838911453
 C         -0.0838198190        0.9452157266       -0.0073504467
 N          1.2637244583        1.1409343989        0.0199935206
 C         -0.9909562996        2.0745082303        0.0992005457
 C         -0.5874289654        3.3374667141       -0.3381303110
 C         -1.4639486995        4.3987493937       -0.2124686944
 N         -2.6792233817        4.2927225118        0.3082304322
 C         -3.0543549163        3.0963998722        0.7399720495
 C         -2.2618170157        1.9658193826        0.6667290830
 C         -1.5846363871       -1.1773463450       -0.2201941288
 C         -1.7137636736       -2.4085647323        0.4144176018
 C         -2.8786660966       -3.1548392915        0.2755287617
 C         -3.9187771251       -2.6699785055       -0.5098627077
 C         -3.7847629297       -1.4487072628       -1.1485524567
 C         -2.6307218498       -0.7028758156       -1.0131269947
 O         -2.9457953747       -4.3453736248        0.9252397342
 H          7.0826831815       -0.8098218409        0.0061407845
 H          5.5696667066       -2.7558499025       -0.0210946917
 H          3.1498643068       -2.4425587307       -0.0324574660
 H          3.6899070498        1.7968030225        0.0102045134
 H          6.1455152874        1.4743157426        0.0232633916
 H          0.3941691042        3.4659281618       -0.7635425318
 H         -1.1889508505        5.3907826808       -0.5454197443
 H         -4.0460437905        3.0503874010        1.1703889467
 H         -2.6177843063        1.0228765425        1.0500757416
 H         -0.9318263370       -2.7976490923        1.0482144611
 H         -4.8270256160       -3.2429757273       -0.6219951261
 H         -4.5913207742       -1.0784801180       -1.7623004601
 H         -2.5265240495        0.2420754445       -1.5231020974
 H         -3.7979446250       -4.7777840036        0.7636358785
 H          1.0219343266       -2.0150688534       -0.1579560231
  39
        -63.33349538
 C          6.1467712354       -0.4685523683       -0.1090901569
 C          5.5414260290        0.7758831894       -0.1964397285
 C          4.1661295869        0.8833139196       -0.1469902127
 C          3.3713928853       -0.2566514734       -0.0088893849
 C          3.9885729951       -1.5049114647        0.0796323935
 C          5.3664688548       -1.6047016013        0.0292818445
 C          1.9315205877       -0.1014338291        0.0363479695
 N          1.0399383366       -1.1268873916        0.1418317371
 C         -0.2195864832       -0.5959834357        0.1441637803
 C         -0.0318403661        0.7791012042        0.0536712807
 N          1.3006726705        1.0520614087       -0.0180018476
 C         -0.9999872942        1.8611740028        0.0861260493
 C         -2.2330284136        1.7469442862        0.7311355168
 C         -3.0883060904        2.8334893108        0.7240676208
 N         -2.8082868491        3.9922226238        0.1432927398
 C         -1.6282870014        4.1061669661       -0.4516332246
 C         -0.6958786967        3.0873989825       -0.5083437178
 C         -1.4054056702       -1.4372550056        0.1682221575
 C         -2.5060336071       -1.1206766609       -0.6261515951
 C         -3.6299354618       -1.9341619527       -0.6215165248
 C         -3.6562192055       -3.0749983653        0.1798394177
 C         -2.5631443554       -3.3897952341        0.9624296993
 C         -1.4381473114       -2.5843189221        0.9592370443
 O         -4.7219051334       -1.6682102308       -1.3820676921
 H          7.2219576348       -0.5525565299       -0.1481205838
 H          6.1454666985        1.6639457435       -0.3033848039
 H          3.6769903004        1.8418676352       -0.2122127508
 H          3.4022285786       -2.4044123533        0.1895221566
 H          5.8344948219       -2.5750993885        0.0985660053
 H         -2.5115856955        0.8351602227        1.2353052779
 H         -4.0533104082        2.7816319434        1.2109162201
 H         -1.4306916049        5.0680427201       -0.9058605003
 H          0.2544995210        3.2211606859       -0.9980989039
 H         -2.4733336546       -0.2397061832       -1.2511846148
 H         -4.5392091575       -3.6932744143        0.1695610848
 H         -2.5890327935       -4.2726736162        1.5820676985
 H         -0.5986668722       -2.8296711077        1.5913663658
 H         -4.5967242835       -0.8575201118       -1.8977116312
 H          1.2473686408       -2.1121216478        0.1682980995
  39
        -63.33312582
 C          6.1498282939       -0.4797989859       -0.1068680153
 C          5.3676072864       -1.6144987115        0.0324676113
 C          3.9898010287       -1.5125153207        0.0802212170
 C          3.3744027902       -0.2635894634       -0.0121879048
 C          4.1711064002        0.8748876610       -0.1512878856
 C          5.5463559867        0.7653007456       -0.1978021075
 C          1.9347386094       -0.1065324781        0.0320014224
 N          1.0418338412       -1.1324192922        0.1208942210
 C         -0.2168903733       -0.5995271958        0.1298487459
 C         -0.0274686162        0.7764367310        0.0614989313
 N          1.3053870705        1.0487034135       -0.0044428093
 C         -0.9967428120        1.8572134109        0.1086895434
 C         -2.2287078421        1.7332178273        0.7534821271
 C         -3.0855594724        2.8182444344        0.7610788262
 N         -2.8072949208        3.9852404012        0.1961555378
 C         -1.6283765788        4.1079603810       -0.3990865275
 C         -0.6947973298        3.0911967829       -0.4701899848
 C         -1.4056047785       -1.4365046375        0.1424775063
 C         -2.5037956200       -1.1046681469       -0.6438550294
 C         -3.6372159641       -1.9086845427       -0.6446272840
 C         -3.6705190132       -3.0568431780        0.1416294933
 C         -2.5743401772       -3.3899743098        0.9170842966
 C         -1.4445837661       -2.5944176973        0.9205795008
 O         -4.6776341466       -1.5341316517       -1.4318261390
 H          7.2249703470       -0.5653841067       -0.1438668697
 H          5.8340891622       -2.5853959724        0.1052207405
 H          3.4018388911       -2.4106888618        0.1921049070
 H          3.6832942810        1.8338955072       -0.2195615910
 H          6.1518235232        1.6522353454       -0.3061104121
 H         -2.5061815990        0.8145117970        1.2451252988
 H         -4.0502584605        2.7584678978        1.2476195828
 H         -1.4326451064        5.0758360949       -0.8414175285
 H          0.2542541677        3.2324601066       -0.9605340121
 H         -2.4902633090       -0.2241629555       -1.2671390873
 H         -4.5486737020       -3.6851074388        0.1462934797
 H         -2.6051323408       -4.2803720829        1.5260454044
 H         -0.6049466968       -2.8535664862        1.5469479044
 H         -5.4110765306       -2.1635572243       -1.3553112425
 H          1.2481187531       -2.1182342241        0.1282453742
  39
        -63.33266854
 C          6.0204444078       -0.6494720354       -0.0067787914
 C          5.1732444440       -1.7449511096       -0.0368798463
 C          3.8021917349       -1.5684939977       -0.0464939654
 C          3.2591607989       -0.2833029643       -0.0257314791
 C          4.1210658174        0.8150376785        0.0055509399
 C          5.4891131813        0.6311410129        0.0147602717
 C          1.8295654036       -0.0477830387       -0.0352650327
 N          0.8799440293       -1.0241009782       -0.0956931780
 C         -0.3475368118       -0.4223820392       -0.0930206532
 C         -0.0821706234        0.9401107947       -0.0094887677
 N          1.2650261617        1.1394480800        0.0185892317
 C         -0.9936076544        2.0653758689        0.1006360446
 C         -0.5854398731        3.3353360896       -0.3117152638
 C         -1.4655483912        4.3933412399       -0.1846090735
 N         -2.6888143511        4.2779765092        0.3150630106
 C         -3.0689844469        3.0747531420        0.7223308577
 C         -2.2735526831        1.9464260043        0.6451311362
 C         -1.5796540201       -1.1831767006       -0.2278424320
 C         -1.7251546067       -2.3958929708        0.4436070968
 C         -2.8915538046       -3.1368371718        0.3085319738
 C         -3.9155390682       -2.6692701270       -0.5122145766
 C         -3.7653531122       -1.4710455667       -1.1841019582
 C         -2.6081092983       -0.7264008568       -1.0500027811
 O         -3.0798819962       -4.3174390348        0.9516115390
 H          7.0899901553       -0.7930621856        0.0003036457
 H          5.5834970351       -2.7434243477       -0.0529285419
 H          3.1631627296       -2.4379872331       -0.0685342821
 H          3.6889697604        1.8026070331        0.0230512686
 H          6.1453916218        1.4876854083        0.0387686125
 H          0.4025662938        3.4714989917       -0.7195505051
 H         -1.1868673025        5.3905740481       -0.4984216974
 H         -4.0675121060        3.0205699308        1.1356639318
 H         -2.6360559199        0.9977873267        1.0075099170
 H         -0.9385763123       -2.7463017499        1.0970141800
 H         -4.8135034742       -3.2583778142       -0.6055098724
 H         -4.5593813929       -1.1152592166       -1.8218837989
 H         -2.4904136493        0.2040714281       -1.5833027511
 H         -2.3146769314       -4.5393305023        1.5036555453
 H          1.0354343813       -2.0148068476       -0.1888049127
  39
        -63.32874516
 C          6.0175265743       -0.6650984625        0.1633982844
 C          5.1715079558       -1.7564008866        0.0528566885
 C          3.8012526873       -1.5781194917        0.0161531240
 C          3.2572018354       -0.2949689522        0.0900751483
 C          4.1181704156        0.7992124007        0.2005843981
 C          5.4854790646        0.6132721902        0.2368703789
 C          1.8286209536       -0.0590952723        0.0545965092
 N          0.8806833668       -1.0272828287       -0.0182363165
 C         -0.3523372478       -0.4241958857       -0.0319023622
 C         -0.0741245384        0.9353045050        0.0357537823
 N          1.2650613038        1.1362010438        0.0886492167
 C         -0.9873792634        2.0876741060        0.0539768316
 C         -1.3774357348        2.7123707087       -1.1278612136
 C         -2.2216673020        3.8072231632       -1.0509650590
 N         -2.6801622244        4.3018497614        0.0892069868
 C         -2.2998167602        3.7113547004        1.2122785773
 C         -1.4599771892        2.6111127331        1.2545340891
 C         -1.5991056849       -1.1579824035       -0.1016296875
 C         -1.6048556385       -2.5519488376       -0.1409973788
 C         -2.7980441375       -3.2598297270       -0.2080037669
 C         -4.0093185608       -2.5785885946       -0.2364595740
 C         -4.0083946592       -1.1950325050       -0.1971261775
 C         -2.8253763505       -0.4873102547       -0.1307710923
 O         -2.7205799225       -4.6165739989       -0.2432396451
 H          7.0865034079       -0.8102638237        0.1916572392
 H          5.5818966597       -2.7532564554       -0.0055588703
 H          3.1632798995       -2.4442456166       -0.0726086674
 H          3.6856719100        1.7851156926        0.2562737053
 H          6.1405681173        1.4667412157        0.3230089154
 H         -1.0316362633        2.3457997156       -2.0813367355
 H         -2.5519498560        4.3190513272       -1.9448281763
 H         -2.6924391338        4.1468031841        2.1212751541
 H         -1.1800345411        2.1642151695        2.1952332231
 H         -0.6959504149       -3.1318572767       -0.1198769790
 H         -4.9407570523       -3.1219765148       -0.2884220761
 H         -4.9463189492       -0.6615948051       -0.2187746827
 H         -2.8480107477        0.5891693997       -0.1016562005
 H         -3.6055068983       -5.0087742514       -0.2880484535
 H          1.0425165197       -2.0194512843       -0.0556284677
