  18
        -54.94901043
 C          1.7802512984       -1.3534857710       -0.3169492245
 C          0.6663163790       -0.5210188174       -0.3839544671
 C          0.8017481953        0.8775854276       -0.1713479606
 Cl         4.4066534213       -1.7585066391        0.0613603043
 C          2.0279127268        1.4617486601        0.1091451805
 Cl         4.6724346602        1.2838781971        0.5220717882
 C          3.1186311896        0.6177601052        0.1731576296
 C          2.9947016212       -0.7652309729       -0.0368060103
 N         -0.4545720092        1.3816874694       -0.3149013481
 C         -1.2758336189        0.3269701754       -0.5842972511
 N         -0.6426218445       -0.8205149270       -0.6363072936
 C         -2.7264640604        0.5378448792       -0.7598560584
 N         -3.4279807451       -0.5876121063       -0.9732386401
 C         -5.1010200616       -0.4201142871        0.8486364271
 O         -4.1108222020       -0.1562158914        1.5500101036
 O         -6.2807572334       -0.5577435131        1.2101089470
 O         -3.1909903182        1.6808303248       -0.7836364215
 C         -4.8366863148       -0.5958828062       -0.6998604446
  18
        -54.94689351
 C          1.6918356952       -1.2002796069        0.3979099317
 C          0.6817928088       -0.2968910649        0.0776509829
 C          1.0052164130        0.9997793725       -0.4069265442
 Cl         4.2832606533       -1.8705234468        0.6075167626
 C          2.3185073090        1.4118084654       -0.5802911542
 Cl         4.9580761334        0.9508537857       -0.4524493248
 C          3.3034370109        0.5001606335       -0.2579337348
 C          2.9932980384       -0.7829422253        0.2233511608
 N         -0.1936040885        1.6095096058       -0.6147604398
 C         -1.1600164060        0.7091602729       -0.2686222061
 N         -0.6755112366       -0.4342486542        0.1472574870
 C         -2.5863438266        1.0841295219       -0.3886098369
 N         -3.4542683192        0.1360792777       -0.0579569552
 C         -5.5407038110       -0.9798719676        0.5502989171
 O         -6.7795152547       -0.9723925055        0.6339187608
 O         -4.7616069071       -1.8846607523        0.8992838519
 O         -2.8931963757        2.2140083898       -0.7834934620
 C         -4.8800432221        0.2974716461       -0.0710613516
  18
        -54.94493389
 C          2.1725846066       -0.4616409845       -1.4465359830
 C          0.8255615340       -0.3480065145       -1.1168607523
 C          0.4366121662        0.0421782033        0.1926467707
 Cl         4.7773415044       -0.2965907988       -0.8216857832
 C          1.3684960589        0.3296640289        1.1787520477
 Cl         3.9063390231        0.5619854762        2.0149335056
 C          2.6990593350        0.2149127246        0.8298235928
 C          3.0922190417       -0.1751783416       -0.4602817257
 N         -0.9252656054        0.0315089079        0.1791809035
 C         -1.2990019677       -0.3214952570       -1.0904653816
 N         -0.2894168188       -0.5564855870       -1.8846981488
 C         -2.7601161738       -0.3109124318       -1.3755624318
 N         -3.4692280306       -1.0295537093       -0.4783333211
 C         -4.5889698139        0.4110920833        1.1620322243
 O         -3.4121324354        0.6457152923        1.5099681907
 O         -5.6232730275        0.8697938105        1.6639776631
 O         -3.2554529951        0.3290836325       -2.2945540569
 C         -4.7692770627       -0.5809563408       -0.0465065295
  18
        -54.94342284
 C          2.0519149525       -1.1458498011       -0.9805891683
 C          0.7670993845       -0.9020972318       -0.5086642494
 C          0.5303446257        0.1401135050        0.4252458975
 Cl         4.6790739355       -0.6009703497       -1.0644832104
 C          1.5527737630        0.9482880974        0.8965349021
 Cl         4.1366925692        1.6668193543        0.9641229811
 C          2.8214112090        0.6914356582        0.4140852708
 C          3.0647916929       -0.3378278244       -0.5069253877
 N         -0.8100135720        0.0939335426        0.6759622685
 C         -1.3171923765       -0.9133394466       -0.0890195688
 N         -0.4168111137       -1.5305224682       -0.8051830661
 C         -2.7860393374       -1.1734080211        0.0044436400
 N         -3.5055108759       -0.7475001891       -1.0586299133
 C         -4.6928338257        0.9806566152        0.2158465589
 O         -3.5597187514        1.1639814863        0.7023223126
 O         -5.7189155217        1.6455793407        0.4160223565
 O         -3.2616450267       -1.7492883957        0.9765827494
 C         -4.8257316137       -0.2461198311       -0.7684300765
  18
        -54.94147527
 C          2.2338402659       -0.9024105119       -1.2413976759
 C          0.9307007416       -0.5039212953       -0.9572599099
 C          0.6678834547        0.3719504924        0.1274708538
 Cl         4.8722174111       -0.8734531453       -0.7457230989
 C          1.6816141168        0.8660829935        0.9348139199
 Cl         4.2736339065        1.0385528241        1.6053339154
 C          2.9668315031        0.4601547693        0.6359040409
 C          3.2360901166       -0.4093869018       -0.4338797551
 N         -0.6840724762        0.5485734068        0.1254227823
 C         -1.1774859832       -0.1900921482       -0.9194568480
 N         -0.2432055126       -0.8222515783       -1.5802827453
 C         -2.6267892487       -0.2346893055       -1.2508811639
 N         -3.4257211397        0.0110361609       -0.2086399167
 C         -5.3472378335        0.1873311743        1.2432186865
 O         -4.4403401946        0.2867341557        2.0954313101
 O         -6.5700120778        0.2186420297        1.4360556723
 O         -3.0346882882       -0.4455288640       -2.3888108980
 C         -4.8610096864        0.0055975667       -0.2362675753
