  13
        -41.47767158
 C         -1.2568233287        1.3555238907        0.0160707755
 C          0.0940812200        1.2316758624       -0.2581489908
 C          0.7091889459        0.0278162179        0.0209283737
 S          2.4262687685       -0.1226273694       -0.2847895514
 F          3.0159771238        0.3938248592        1.2143127439
 O          2.9406150765        0.8478937949       -1.2003357518
 O          2.8803006703       -1.4759655242       -0.3749965486
 C          0.0395343490       -1.0515373154        0.5571614662
 C         -1.3137670102       -0.9151873160        0.8243652608
 C         -1.9677456725        0.2885818895        0.5659875257
 C         -3.4363327844        0.4411882957        0.8516163892
 C         -4.2726355097        0.3737701908       -0.4266929813
 N         -4.2412694021       -0.9971688451       -0.9893932274
  13
        -41.47755850
 C         -1.2992153155       -0.5544758252        1.1308202810
 C          0.0514276648       -0.7741269050        0.9249499849
 C          0.7123282956        0.0277608527        0.0161547830
 S          2.4290854625       -0.2202841535       -0.2199302789
 F          3.0216960637        0.7866156130        1.0031087287
 O          2.9396867805        0.3697231407       -1.4185923729
 O          2.8854188259       -1.5198377332        0.1651123894
 C          0.0877992487        1.0323288986       -0.6921883529
 C         -1.2670109728        1.2367811439       -0.4822317218
 C         -1.9670690974        0.4533089780        0.4335902923
 C         -3.4340407953        0.6831219544        0.6747407004
 C         -4.2934732604       -0.4926745117        0.2124623753
 N         -4.2518637323       -0.6101691031       -1.2648630477
  13
        -41.47739109
 C         -1.2515234895        1.3897836014        0.1266473731
 C          0.1140797528        1.2911811409       -0.0754269787
 C          0.7352324682        0.0975882230        0.2329100490
 S          2.4652959389       -0.0273340597       -0.0045728967
 F          2.4795213542       -0.5696414549       -1.6095060045
 O          3.0725401219       -1.1044641372        0.7139302093
 O          3.1352040237        1.2339946199       -0.0741643833
 C          0.0572189140       -0.9962351805        0.7276227588
 C         -1.3106133223       -0.8849742999        0.9230118846
 C         -1.9715564548        0.3079084877        0.6338893646
 C         -3.4546178375        0.4357464753        0.8485034894
 C         -4.2283875619        0.3653539105       -0.4682589364
 N         -4.1513463404       -1.0014275522       -1.0369078971
  13
        -41.47721509
 C         -1.3144371814        1.0096292474       -0.7721735143
 C          0.0599388630        1.0677166327       -0.6212721465
 C          0.7274624221       -0.0872992468       -0.2666089885
 S          2.4689492047       -0.0268357616       -0.0953315985
 F          2.5666759736        0.3238943866        1.5601004948
 O          3.0746909859        1.1117658544       -0.7131067420
 O          3.1070862126       -1.3018369279       -0.2020844141
 C          0.0862961470       -1.2891923286       -0.0529926183
 C         -1.2912914272       -1.3315624103       -0.1991667529
 C         -1.9997077707       -0.1886934821       -0.5664968987
 C         -3.4910071855       -0.2430603216       -0.7575587374
 C         -4.2493111800        0.6533103568        0.2195022177
 N         -4.1049401823        0.1431873370        1.6041727992
  13
        -41.47687420
 C         -1.3592642596        1.0592587125       -0.1270169648
 C         -0.0025396451        1.0146598219       -0.4004437584
 C          0.7206609348       -0.0711660787        0.0477341415
 S          2.4412911918       -0.1189522285       -0.2669636491
 F          2.9945771533        0.7012865756        1.1058297874
 O          2.8539706283        0.7223499624       -1.3475709094
 O          3.0200967419       -1.4204093514       -0.1364399590
 C          0.1503275275       -1.1090840428        0.7550333470
 C         -1.2081960420       -1.0550677133        1.0163697532
 C         -1.9743625243        0.0283756664        0.5852366871
 C         -3.4382741653        0.0771110559        0.9306336007
 C         -4.3461056635        0.5661834049       -0.1936300255
 N         -4.2495881901       -0.3372951021       -1.3649268285
  13
        -41.47684922
 C         -1.1884949222       -1.0041612738        0.7307845670
 C          0.1795696289       -1.0869288627        0.5343881513
 C          0.8276188808        0.0061634784       -0.0021547029
 S          2.5607999682       -0.0802474082       -0.2285275803
 F          3.0639443007        0.5081489078        1.2773927968
 O          3.0768624283        0.8837537518       -1.1505788160
 O          3.0791460585       -1.4130987295       -0.2537794773
 C          0.1761889459        1.1710918909       -0.3500765092
 C         -1.1920566928        1.2401312484       -0.1486300566
 C         -1.8803383883        0.1588236350        0.3978037583
 C         -3.3685262562        0.2302422947        0.5893918082
 C         -4.0757850352       -0.2909699471       -0.6661354204
 N         -5.5444817253       -0.2323840588       -0.4849025733
  13
        -41.47673609
 C         -1.4132970752       -0.8538655640        0.4066065112
 C         -0.0559304225       -1.0296815317        0.1918849839
 C          0.7270830166        0.0876551753       -0.0059406235
 S          2.4446224831       -0.1265235198       -0.2577665232
 F          2.9698598011       -0.0632924478        1.3494564483
 O          3.0874709773        0.9975562648       -0.8651263761
 O          2.8065489531       -1.4463460090       -0.6746054385
 C          0.2160151563        1.3695469188        0.0058835907
 C         -1.1416605594        1.5311291275        0.2178053815
 C         -1.9694578120        0.4259653067        0.4243978412
 C         -3.4315946949        0.6609255668        0.6913793618
 C         -4.3700837569       -0.4398506634        0.2096973018
 N         -4.2599619792       -0.6068213070       -1.2591898757
  13
        -41.47669539
 C         -1.1917667489        1.2720296523       -0.1266577001
 C          0.1864355978        1.2243256260       -0.2517223341
 C          0.8437171966        0.1027262316        0.2093031618
 S          2.5859782047        0.0349388586        0.0570604478
 F          2.7007881104       -0.6892782630       -1.4699685318
 O          3.2097034014       -0.9179782259        0.9222395309
 O          3.2040068153        1.3103966969       -0.1349503214
 C          0.1916518099       -0.9685978460        0.7834908157
 C         -1.1865351778       -0.9077084383        0.9022459376
 C         -1.8847544417        0.2122664711        0.4550334428
 C         -3.3818053627        0.2620215590        0.5691152347
 C         -4.0166889849       -0.3397067879       -0.6889712695
 N         -5.4933795747       -0.3003555014       -0.5825361264
  13
        -41.47662176
 C         -1.1720216995        1.5061135536        0.2197987252
 C          0.1967397038        1.3608647341        0.0698577468
 C          0.7412848716        0.1036635492        0.2311626158
 S          2.4687147901       -0.0889753167        0.0293321660
 F          2.5141880063       -0.3641717612       -1.6426828511
 O          2.9857783321       -1.3043166888        0.5776521474
 O          3.2105502563        1.1239060106        0.1846094338
 C         -0.0169098200       -1.0056924723        0.5430942563
 C         -1.3837138768       -0.8453811929        0.6970867262
 C         -1.9740953373        0.4092909998        0.5364078601
 C         -3.4526427789        0.6098358257        0.7327329127
 C         -4.3292815426       -0.4710602420        0.1072772939
 N         -4.1174267537       -0.5221587476       -1.3593023593
  13
        -41.47653757
 C         -1.1673311452        1.4914982981       -0.3729320253
 C          0.2062131525        1.3554809863       -0.2746135960
 C          0.7360911438        0.0816278105       -0.2482136555
 S          2.4723295511       -0.0979649528       -0.1278045406
 F          2.6330936316       -0.0812197597        1.5593744314
 O          3.2064910252        1.0571087261       -0.5417599821
 O          2.9466840748       -1.3970947964       -0.4924837952
 C         -0.0441264067       -1.0530565015       -0.3191639134
 C         -1.4173622634       -0.9028689489       -0.4224629868
 C         -1.9923814156        0.3683653062       -0.4541298535
 C         -3.4746473916        0.5695844888       -0.6183141009
 C         -4.3545298425       -0.4807552506        0.0505337414
 N         -4.1246221166       -0.4902645051        1.5149972599
  13
        -41.47645465
 C         -1.1216075596        1.4917492450        0.5421745035
 C          0.2460615717        1.3412551999        0.4028916863
 C          0.7482475351        0.0680314470        0.2228934971
 S          2.4766447581       -0.1272535416        0.0398836539
 F          2.5984920896        0.0708781567       -1.6389054633
 O          2.9349000167       -1.4666156340        0.2467886038
 O          3.2416107901        0.9636649102        0.5587048252
 C         -0.0549900875       -1.0512383682        0.1832054901
 C         -1.4234971798       -0.8871330228        0.3287892188
 C         -1.9707798731        0.3832227602        0.5111802633
 C         -3.4442701395        0.6096337190        0.7154180561
 C         -4.3667378812       -0.4502910998        0.1255640063
 N         -4.2080279411       -0.5151130295       -1.3471555107
  13
        -41.47546027
 C         -1.0615523391        0.3658343965        1.4275183751
 C          0.3145529990        0.2935416771        1.3292617581
 C          0.8620792489       -0.0791569672        0.1176087698
 S          2.6027416124       -0.1647722643       -0.0212108803
 F          2.9238944636        1.4311289550       -0.4928929750
 O          3.0610022293       -0.9359314517       -1.1356183765
 O          3.2831995294       -0.2812778838        1.2316969663
 C          0.0941893650       -0.3765871138       -0.9868264695
 C         -1.2856748010       -0.3003391163       -0.8752267213
 C         -1.8765589459        0.0706883954        0.3305141814
 C         -3.3634113450        0.1719126568        0.5197481848
 C         -4.1980380715       -0.2128339070       -0.6982762680
 N         -5.6384998420       -0.0952641115       -0.3677420856
  13
        -41.47535222
 C         -1.2716627987        0.9229016576       -0.3154878636
 C          0.1033855349        0.9645092555       -0.4764380757
 C          0.8516136731       -0.0958255588       -0.0110277500
 S          2.5895629667       -0.0429271275       -0.1984764211
 F          3.0019214766        0.7170604823        1.2584268246
 O          3.0408958995        0.8816970608       -1.1923331325
 O          3.2266617745       -1.3196659291       -0.0971877561
 C          0.2888333433       -1.1922087483        0.6091689063
 C         -1.0858433408       -1.2227073513        0.7604941508
 C         -1.8793369097       -0.1694715133        0.3025257410
 C         -3.3651134696       -0.2367033004        0.5147705756
 C         -4.1804871467        0.4584187773       -0.5761005826
 N         -5.6123107000        0.1053913521       -0.4284974030
  13
        -41.47528855
 C         -1.0836778798        1.3761744619       -0.4771230109
 C          0.2955131670        1.2882639998       -0.4234667649
 C          0.8606942486        0.0521645101       -0.1857482395
 S          2.6034505736       -0.0666012001       -0.1023614147
 F          2.8220425928        0.2062408904        1.5557285743
 O          3.2922633357        1.0300048737       -0.7097813538
 O          3.1066196785       -1.3926793731       -0.2875670860
 C          0.1094325603       -1.0893326479       -0.0040884626
 C         -1.2708943648       -0.9879495785       -0.0630005935
 C         -1.8805748745        0.2436646070       -0.2983979041
 C         -3.3722601903        0.3901683922       -0.3995854972
 C         -4.1596682549       -0.6258768931        0.4275668361
 N         -5.5894732609       -0.2371733420        0.4614702278
