  24
        -41.47767158
 C         -1.2568233287        1.3555238907        0.0160707755
 C          0.0940812200        1.2316758624       -0.2581489908
 C          0.7091889459        0.0278162179        0.0209283737
 S          2.4262687685       -0.1226273694       -0.2847895514
 F          3.0159771238        0.3938248592        1.2143127439
 O          2.9406150765        0.8478937949       -1.2003357518
 O          2.8803006703       -1.4759655242       -0.3749965486
 C          0.0395343490       -1.0515373154        0.5571614662
 C         -1.3137670102       -0.9151873160        0.8243652608
 C         -1.9677456725        0.2885818895        0.5659875257
 C         -3.4363327844        0.4411882957        0.8516163892
 C         -4.2726355097        0.3737701908       -0.4266929813
 N         -4.2412694021       -0.9971688451       -0.9893932274
 H         -1.7547287734        2.2910892324       -0.1830971058
 H          0.6800532560        2.0323629749       -0.6764155828
 H          0.5833182303       -1.9610830750        0.7482095604
 H         -1.8468107461       -1.7447025871        1.2615155315
 H         -3.6041764867        1.4108001853        1.3180034165
 H         -3.7597124750       -0.3265734851        1.5525202515
 H         -3.8803167079        1.0729517571       -1.1640495061
 H         -5.3036184896        0.6417667164       -0.1999079246
 H         -3.2722974419       -1.2810582259       -1.1752904649
 H         -4.6512484614       -1.6645743010       -0.3250074409
 H         -4.7714131760       -1.0425079033       -1.8671251263
  24
        -41.47755850
 C         -1.2992153155       -0.5544758252        1.1308202810
 C          0.0514276648       -0.7741269050        0.9249499849
 C          0.7123282956        0.0277608527        0.0161547830
 S          2.4290854625       -0.2202841535       -0.2199302789
 F          3.0216960637        0.7866156130        1.0031087287
 O          2.9396867805        0.3697231407       -1.4185923729
 O          2.8854188259       -1.5198377332        0.1651123894
 C          0.0877992487        1.0323288986       -0.6921883529
 C         -1.2670109728        1.2367811439       -0.4822317218
 C         -1.9670690974        0.4533089780        0.4335902923
 C         -3.4340407953        0.6831219544        0.6747407004
 C         -4.2934732604       -0.4926745117        0.2124623753
 N         -4.2518637323       -0.6101691031       -1.2648630477
 H         -1.8281039026       -1.1576148579        1.8513593524
 H          0.6034249763       -1.5395254344        1.4434500901
 H          0.6658905754        1.6209705593       -1.3841179316
 H         -1.7676816057        2.0258391434       -1.0205966797
 H         -3.7506001026        1.5983866228        0.1772979913
 H         -3.5905366588        0.8181477975        1.7447373023
 H         -5.3237450560       -0.3326428577        0.5276085655
 H         -3.9307248655       -1.4196000909        0.6538800841
 H         -3.2840636748       -0.7354121894       -1.5828802395
 H         -4.8077489646       -1.4130198989       -1.5810672785
 H         -4.6270798063        0.2402392262       -1.7017742627
  24
        -41.47739109
 C         -1.2515234895        1.3897836014        0.1266473731
 C          0.1140797528        1.2911811409       -0.0754269787
 C          0.7352324682        0.0975882230        0.2329100490
 S          2.4652959389       -0.0273340597       -0.0045728967
 F          2.4795213542       -0.5696414549       -1.6095060045
 O          3.0725401219       -1.1044641372        0.7139302093
 O          3.1352040237        1.2339946199       -0.0741643833
 C          0.0572189140       -0.9962351805        0.7276227588
 C         -1.3106133223       -0.8849742999        0.9230118846
 C         -1.9715564548        0.3079084877        0.6338893646
 C         -3.4546178375        0.4357464753        0.8485034894
 C         -4.2283875619        0.3653539105       -0.4682589364
 N         -4.1513463404       -1.0014275522       -1.0369078971
 H         -1.7544442351        2.3177854041       -0.0941499665
 H          0.7086462026        2.1076678960       -0.4485885376
 H          0.6076989562       -1.8934333932        0.9544156587
 H         -1.8508414790       -1.7253448974        1.3295167819
 H         -3.6595200337        1.3993047104        1.3126486301
 H         -3.7993531725       -0.3419279110        1.5279828263
 H         -3.8118403865        1.0746530698       -1.1822911499
 H         -5.2726642241        0.6173169698       -0.2888823452
 H         -3.1711498796       -1.2688089627       -1.1841533716
 H         -4.5777473694       -1.6793420189       -0.3937986499
 H         -4.6435318546       -1.0497864496       -1.9363029216
  24
        -41.47721509
 C         -1.3144371814        1.0096292474       -0.7721735143
 C          0.0599388630        1.0677166327       -0.6212721465
 C          0.7274624221       -0.0872992468       -0.2666089885
 S          2.4689492047       -0.0268357616       -0.0953315985
 F          2.5666759736        0.3238943866        1.5601004948
 O          3.0746909859        1.1117658544       -0.7131067420
 O          3.1070862126       -1.3018369279       -0.2020844141
 C          0.0862961470       -1.2891923286       -0.0529926183
 C         -1.2912914272       -1.3315624103       -0.1991667529
 C         -1.9997077707       -0.1886934821       -0.5664968987
 C         -3.4910071855       -0.2430603216       -0.7575587374
 C         -4.2493111800        0.6533103568        0.2195022177
 N         -4.1049401823        0.1431873370        1.6041727992
 H         -1.8486148865        1.8965792239       -1.0730612934
 H          0.6265315355        1.9690170258       -0.7825810368
 H          0.6708822895       -2.1543194258        0.2101428592
 H         -1.8059640242       -2.2669175642       -0.0467210459
 H         -3.8354482519       -1.2720429323       -0.6676146505
 H         -3.7179763688        0.0917155023       -1.7698224184
 H         -5.3054404306        0.6630678849       -0.0471361186
 H         -3.8665947307        1.6715245499        0.1741921677
 H         -3.1151862281        0.1266963152        1.8750708123
 H         -4.6159533610        0.7392804792        2.2653347593
 H         -4.4734945896       -0.8131080962        1.6725479403
  24
        -41.47687420
 C         -1.3592642596        1.0592587125       -0.1270169648
 C         -0.0025396451        1.0146598219       -0.4004437584
 C          0.7206609348       -0.0711660787        0.0477341415
 S          2.4412911918       -0.1189522285       -0.2669636491
 F          2.9945771533        0.7012865756        1.1058297874
 O          2.8539706283        0.7223499624       -1.3475709094
 O          3.0200967419       -1.4204093514       -0.1364399590
 C          0.1503275275       -1.1090840428        0.7550333470
 C         -1.2081960420       -1.0550677133        1.0163697532
 C         -1.9743625243        0.0283756664        0.5852366871
 C         -3.4382741653        0.0771110559        0.9306336007
 C         -4.3461056635        0.5661834049       -0.1936300255
 N         -4.2495881901       -0.3372951021       -1.3649268285
 H         -1.9217020181        1.9185755163       -0.4532235914
 H          0.5065063861        1.7908047174       -0.9462527579
 H          0.7728683074       -1.9267809939        1.0762647133
 H         -1.6688072341       -1.8567739851        1.5712963012
 H         -3.5555790954        0.7539811345        1.7791104209
 H         -3.7581820189       -0.9082477878        1.2673108992
 H         -4.0797068850        1.5761261664       -0.4983614649
 H         -5.3749265655        0.5765809759        0.1646774194
 H         -4.8701122513       -0.0224311806       -2.1193595559
 H         -3.2858583167       -0.3554562976       -1.7175559062
 H         -4.5134192841       -1.2940264839       -1.1006823497
  24
        -41.47684922
 C         -1.1884949222       -1.0041612738        0.7307845670
 C          0.1795696289       -1.0869288627        0.5343881513
 C          0.8276188808        0.0061634784       -0.0021547029
 S          2.5607999682       -0.0802474082       -0.2285275803
 F          3.0639443007        0.5081489078        1.2773927968
 O          3.0768624283        0.8837537518       -1.1505788160
 O          3.0791460585       -1.4130987295       -0.2537794773
 C          0.1761889459        1.1710918909       -0.3500765092
 C         -1.1920566928        1.2401312484       -0.1486300566
 C         -1.8803383883        0.1588236350        0.3978037583
 C         -3.3685262562        0.2302422947        0.5893918082
 C         -4.0757850352       -0.2909699471       -0.6661354204
 N         -5.5444817253       -0.2323840588       -0.4849025733
 H         -1.7114816652       -1.8462734245        1.1549886572
 H          0.7525367499       -1.9651074196        0.7793930999
 H          0.7465324913        1.9836025736       -0.7672913702
 H         -1.7177929442        2.1446580274       -0.4094887483
 H         -3.6521851104        1.2650809924        0.7759975903
 H         -3.6429674194       -0.3762810759        1.4514890015
 H         -3.7742217076       -1.3206845379       -0.8558825853
 H         -3.7913993470        0.3156465829       -1.5254387927
 H         -5.8450659804        0.7343413704       -0.3109389707
 H         -6.0267496983       -0.5788620288       -1.3222460552
 H         -5.8289309911       -0.8070847982        0.3175932213
  24
        -41.47673609
 C         -1.4132970752       -0.8538655640        0.4066065112
 C         -0.0559304225       -1.0296815317        0.1918849839
 C          0.7270830166        0.0876551753       -0.0059406235
 S          2.4446224831       -0.1265235198       -0.2577665232
 F          2.9698598011       -0.0632924478        1.3494564483
 O          3.0874709773        0.9975562648       -0.8651263761
 O          2.8065489531       -1.4463460090       -0.6746054385
 C          0.2160151563        1.3695469188        0.0058835907
 C         -1.1416605594        1.5311291275        0.2178053815
 C         -1.9694578120        0.4259653067        0.4243978412
 C         -3.4315946949        0.6609255668        0.6913793618
 C         -4.3700837569       -0.4398506634        0.2096973018
 N         -4.2599619792       -0.6068213070       -1.2591898757
 H         -2.0171233231       -1.7276093181        0.5880455584
 H          0.4080495025       -2.0011945796        0.1711560041
 H          0.8827443827        2.1995740914       -0.1552351544
 H         -1.5574092774        2.5260052847        0.2324003425
 H         -3.7203750939        1.6163447827        0.2539932585
 H         -3.5552032536        0.7645484569        1.7714973422
 H         -5.3933052724       -0.1624500695        0.4608485127
 H         -4.1453453122       -1.3855077474        0.6989412086
 H         -3.2958901980       -0.8515484410       -1.5135991694
 H         -4.8872884045       -1.3484674487       -1.5904253341
 H         -4.5047574214        0.2686756778       -1.7369197901
  24
        -41.47669539
 C         -1.1917667489        1.2720296523       -0.1266577001
 C          0.1864355978        1.2243256260       -0.2517223341
 C          0.8437171966        0.1027262316        0.2093031618
 S          2.5859782047        0.0349388586        0.0570604478
 F          2.7007881104       -0.6892782630       -1.4699685318
 O          3.2097034014       -0.9179782259        0.9222395309
 O          3.2040068153        1.3103966969       -0.1349503214
 C          0.1916518099       -0.9685978460        0.7834908157
 C         -1.1865351778       -0.9077084383        0.9022459376
 C         -1.8847544417        0.2122664711        0.4550334428
 C         -3.3818053627        0.2620215590        0.5691152347
 C         -4.0166889849       -0.3397067879       -0.6889712695
 N         -5.4933795747       -0.3003555014       -0.5825361264
 H         -1.7221248190        2.1442205110       -0.4739481968
 H          0.7614255563        2.0259063558       -0.6834351411
 H          0.7705034031       -1.8090900712        1.1270232697
 H         -1.7128090680       -1.7322067161        1.3559598681
 H         -3.6931511016        1.2992636320        0.6850330775
 H         -3.6877693325       -0.3032571010        1.4484055941
 H         -3.6884698015       -1.3719366295       -0.8075691951
 H         -3.7004339013        0.2251367628       -1.5654432132
 H         -5.8185978621        0.6683338484       -0.4771718763
 H         -5.9277428362       -0.7014339289       -1.4217043029
 H         -5.8071613073       -0.8359822774        0.2359360397
  24
        -41.47662176
 C         -1.1720216995        1.5061135536        0.2197987252
 C          0.1967397038        1.3608647341        0.0698577468
 C          0.7412848716        0.1036635492        0.2311626158
 S          2.4687147901       -0.0889753167        0.0293321660
 F          2.5141880063       -0.3641717612       -1.6426828511
 O          2.9857783321       -1.3043166888        0.5776521474
 O          3.2105502563        1.1239060106        0.1846094338
 C         -0.0169098200       -1.0056924723        0.5430942563
 C         -1.3837138768       -0.8453811929        0.6970867262
 C         -1.9740953373        0.4092909998        0.5364078601
 C         -3.4526427789        0.6098358257        0.7327329127
 C         -4.3292815426       -0.4710602420        0.1072772939
 N         -4.1174267537       -0.5221587476       -1.3593023593
 H         -1.6130631477        2.4830276798        0.1010561785
 H          0.8477591950        2.1867613143       -0.1614729002
 H          0.4747285001       -1.9557235393        0.6668520393
 H         -1.9757537895       -1.7042245721        0.9677084857
 H         -3.7342489217        1.5890767868        0.3476467292
 H         -3.6471194956        0.6241886263        1.8067808551
 H         -5.3742462289       -0.2375114987        0.3085249819
 H         -4.1080450567       -1.4472228587        0.5339850889
 H         -4.7039549704       -1.2480363623       -1.7866306928
 H         -4.3502862315        0.3825529168       -1.7860171991
 H         -3.1338977354       -0.7309776586       -1.5659106920
  24
        -41.47653757
 C         -1.1673311452        1.4914982981       -0.3729320253
 C          0.2062131525        1.3554809863       -0.2746135960
 C          0.7360911438        0.0816278105       -0.2482136555
 S          2.4723295511       -0.0979649528       -0.1278045406
 F          2.6330936316       -0.0812197597        1.5593744314
 O          3.2064910252        1.0571087261       -0.5417599821
 O          2.9466840748       -1.3970947964       -0.4924837952
 C         -0.0441264067       -1.0530565015       -0.3191639134
 C         -1.4173622634       -0.9028689489       -0.4224629868
 C         -1.9923814156        0.3683653062       -0.4541298535
 C         -3.4746473916        0.5695844888       -0.6183141009
 C         -4.3545298425       -0.4807552506        0.0505337414
 N         -4.1246221166       -0.4902645051        1.5149972599
 H         -1.5974193822        2.4800118470       -0.3994524087
 H          0.8723693454        2.1999522160       -0.2246928046
 H          0.4354125589       -2.0170729928       -0.3030879121
 H         -2.0226138393       -1.7902129855       -0.5076060152
 H         -3.6893282746        0.5597254039       -1.6890008129
 H         -3.7388430525        1.5632115385       -0.2575593252
 H         -4.1544484941       -1.4716463036       -0.3520417234
 H         -5.3988328316       -0.2387699854       -0.1441671870
 H         -4.7163781248       -1.1927233469        1.9728633591
 H         -3.1412149449       -0.7058514175        1.7155578999
 H         -4.3386699361        0.4309372321        1.9153215513
  24
        -41.47645465
 C         -1.1216075596        1.4917492450        0.5421745035
 C          0.2460615717        1.3412551999        0.4028916863
 C          0.7482475351        0.0680314470        0.2228934971
 S          2.4766447581       -0.1272535416        0.0398836539
 F          2.5984920896        0.0708781567       -1.6389054633
 O          2.9349000167       -1.4666156340        0.2467886038
 O          3.2416107901        0.9636649102        0.5587048252
 C         -0.0549900875       -1.0512383682        0.1832054901
 C         -1.4234971798       -0.8871330228        0.3287892188
 C         -1.9707798731        0.3832227602        0.5111802633
 C         -3.4442701395        0.6096337190        0.7154180561
 C         -4.3667378812       -0.4502910998        0.1255640063
 N         -4.2080279411       -0.5151130295       -1.3471555107
 H         -1.5307935278        2.4789219533        0.6869429665
 H          0.9291309234        2.1730434082        0.4348569175
 H          0.4029393906       -2.0165999660        0.0491181993
 H         -2.0414240120       -1.7697783424        0.3300800126
 H         -3.7049472693        1.5926158675        0.3229738813
 H         -3.6207004010        0.6522722152        1.7923921488
 H         -5.3975013217       -0.1859931337        0.3601757894
 H         -4.1611880823       -1.4280685115        0.5570124729
 H         -4.4280417291        0.3949848310       -1.7690013777
 H         -3.2383836439       -0.7517553058       -1.5878985245
 H         -4.8314322516       -1.2231787242       -1.7511646493
  24
        -41.47546027
 C         -1.0615523391        0.3658343965        1.4275183751
 C          0.3145529990        0.2935416771        1.3292617581
 C          0.8620792489       -0.0791569672        0.1176087698
 S          2.6027416124       -0.1647722643       -0.0212108803
 F          2.9238944636        1.4311289550       -0.4928929750
 O          3.0610022293       -0.9359314517       -1.1356183765
 O          3.2831995294       -0.2812778838        1.2316969663
 C          0.0941893650       -0.3765871138       -0.9868264695
 C         -1.2856748010       -0.3003391163       -0.8752267213
 C         -1.8765589459        0.0706883954        0.3305141814
 C         -3.3634113450        0.1719126568        0.5197481848
 C         -4.1980380715       -0.2128339070       -0.6982762680
 N         -5.6384998420       -0.0952641115       -0.3677420856
 H         -1.5078375718        0.6541180405        2.3660829932
 H          0.9706716876        0.5085795264        2.1555231543
 H          0.5858556060       -0.6645169664       -1.9006074109
 H         -1.8779919016       -0.5347367447       -1.7423940394
 H         -3.5811833733        1.2019958749        0.8104421659
 H         -3.6241789563       -0.4670674591        1.3660217633
 H         -3.9846129727       -1.2411316682       -0.9881877657
 H         -3.9724818174        0.4502597062       -1.5326898473
 H         -6.2164756779       -0.3468361494       -1.1778538257
 H         -5.8806362366       -0.7194933996        0.4111963520
 H         -5.8662169141        0.8675398333       -0.0917891854
  24
        -41.47535222
 C         -1.2716627987        0.9229016576       -0.3154878636
 C          0.1033855349        0.9645092555       -0.4764380757
 C          0.8516136731       -0.0958255588       -0.0110277500
 S          2.5895629667       -0.0429271275       -0.1984764211
 F          3.0019214766        0.7170604823        1.2584268246
 O          3.0408958995        0.8816970608       -1.1923331325
 O          3.2266617745       -1.3196659291       -0.0971877561
 C          0.2888333433       -1.1922087483        0.6091689063
 C         -1.0858433408       -1.2227073513        0.7604941508
 C         -1.8793369097       -0.1694715133        0.3025257410
 C         -3.3651134696       -0.2367033004        0.5147705756
 C         -4.1804871467        0.4584187773       -0.5761005826
 N         -5.6123107000        0.1053913521       -0.4284974030
 H         -1.8539909589        1.7548891911       -0.6722220853
 H          0.6072943977        1.7881343894       -0.9531683195
 H          0.9299993338       -1.9891322738        0.9458162028
 H         -1.5410240640       -2.0735217727        1.2420150206
 H         -3.5755340847        0.2162176816        1.4866046699
 H         -3.6452516822       -1.2887139707        0.5724882701
 H         -3.8292663958        0.1379143538       -1.5566007423
 H         -4.0799436141        1.5397477587       -0.5014046785
 H         -5.7444111413       -0.9087086629       -0.5240176846
 H         -5.9574275368        0.3902019184        0.4961299635
 H         -6.1760515221        0.5754649240       -1.1461131050
  24
        -41.47528855
 C         -1.0836778798        1.3761744619       -0.4771230109
 C          0.2955131670        1.2882639998       -0.4234667649
 C          0.8606942486        0.0521645101       -0.1857482395
 S          2.6034505736       -0.0666012001       -0.1023614147
 F          2.8220425928        0.2062408904        1.5557285743
 O          3.2922633357        1.0300048737       -0.7097813538
 O          3.1066196785       -1.3926793731       -0.2875670860
 C          0.1094325603       -1.0893326479       -0.0040884626
 C         -1.2708943648       -0.9879495785       -0.0630005935
 C         -1.8805748745        0.2436646070       -0.2983979041
 C         -3.3722601903        0.3901683922       -0.3995854972
 C         -4.1596682549       -0.6258768931        0.4275668361
 N         -5.5894732609       -0.2371733420        0.4614702278
 H         -1.5407767849        2.3350344220       -0.6631958131
 H          0.9396111396        2.1400825196       -0.5614658339
 H          0.6152872093       -2.0238065850        0.1704429323
 H         -1.8549362514       -1.8821358386        0.0703390971
 H         -3.6351101229        0.2974545739       -1.4561839301
 H         -3.6278019569        1.4019757588       -0.0837421181
 H         -3.7691581432       -0.6527979130        1.4445819030
 H         -4.0804824216       -1.6203294574       -0.0081813438
 H         -6.1359767288       -0.9166410205        1.0031138378
 H         -5.7008326381        0.6880163462        0.8934145805
 H         -5.9715956047       -0.1963244633       -0.4911942356
