  28
        -45.96742880
 C         -1.6172547842        0.2221286093       -0.0184109541
 C         -2.5470839094        1.0498355796        0.6123908160
 C         -3.8883586746        0.7180293841        0.6142959416
 C          1.9341120332       -2.0822575383        0.1492682975
 C         -4.3217857121       -0.4363917800       -0.0182435197
 C         -3.4045556615       -1.2628129487       -0.6462155101
 C         -2.0597495033       -0.9417686521       -0.6444119897
 C          2.1252979801        0.0100211079        0.0131604757
 N          2.5342215813        1.2624587778       -0.0576710446
 N          2.8518495944       -1.0900905301        0.0950574805
 C         -0.2012126429        0.5959315590       -0.0313062200
 N          2.2780407705       -3.3799241120        0.1780939672
 C          1.6065011757        2.2027785190       -0.1179332582
 C          2.0721348996        3.6177215352       -0.2041626310
 N          0.6624463038       -1.6734077307        0.1101494300
 N          0.7659015492       -0.3407398475        0.0181882453
 C          0.2358908916        1.9057975084       -0.1035806137
 H         -2.2127665909        1.9397923931        1.1227632992
 H         -4.5974736349        1.3610258178        1.1124445473
 H         -5.3699854163       -0.6924109492       -0.0179276329
 H         -3.7358509910       -2.1634346336       -1.1396594335
 H         -1.3463847600       -1.5881671365       -1.1292473031
 H          1.5627848876       -4.0389051604        0.4308601989
 H          3.2361524049       -3.5850536877        0.4009590141
 H          3.1564865160        3.6437724037       -0.2076378972
 H          1.6928374895        4.0779691483       -1.1137386939
 H          1.6965131722        4.1848903271        0.6445272596
 H         -0.4836059365        2.7034521863       -0.1724177174
  28
        -45.96730044
 C         -1.6176454583        0.2207329826       -0.0181736441
 C         -2.5429165558        1.0445217687        0.6243723929
 C         -3.8848924732        0.7157782217        0.6292224355
 C          1.9372101564       -2.0842128594        0.1248445366
 C         -4.3237458206       -0.4317980270       -0.0118888180
 C         -3.4110934477       -1.2547029767       -0.6509686143
 C         -2.0655938413       -0.9365868820       -0.6521810931
 C          2.1256687109        0.0095565120        0.0076821583
 N          2.5333515255        1.2627751893       -0.0547360975
 N          2.8536555944       -1.0902736841        0.0770922396
 C         -0.2012410307        0.5932148693       -0.0330505566
 N          2.2829000942       -3.3739057599        0.2566647511
 C          1.6047665718        2.2026304363       -0.1095816456
 C          2.0687651323        3.6185954918       -0.1875359752
 N          0.6648345713       -1.6773307399        0.0796671479
 N          0.7664188613       -0.3431998061        0.0068743081
 C          0.2346941404        1.9040547235       -0.0966236323
 H         -2.2043251350        1.9289966902        1.1414359766
 H         -4.5902887225        1.3562132249        1.1359726867
 H         -5.3725986939       -0.6850706967       -0.0097939761
 H         -3.7468720630       -2.1500430195       -1.1508988695
 H         -1.3556781193       -1.5801102623       -1.1456220863
 H          1.5714926802       -4.0643164807        0.0949221389
 H          3.2463180091       -3.6038725387        0.0893601515
 H          1.6954937309        4.0813767967       -1.0983635400
 H          1.6857294905        4.1821421519        0.6602193159
 H          3.1530833888        3.6465313135       -0.1829315879
 H         -0.4858703695        2.7012725912       -0.1589851777
  28
        -45.96686757
 C         -1.6180523938        0.2232499133       -0.0234439974
 C         -2.5463211628        1.0470311662        0.6147526080
 C         -3.8867923596        0.7119284305        0.6227736483
 C          1.9319780826       -2.0806702837        0.1505132279
 C         -4.3209941879       -0.4413851053       -0.0112594222
 C         -3.4054623216       -1.2631241258       -0.6479872268
 C         -2.0614626828       -0.9389977530       -0.6520783563
 C          2.1237461757        0.0118561782        0.0160416547
 N          2.5315904971        1.2626008566       -0.0518727683
 N          2.8496708300       -1.0886322344        0.1012449548
 C         -0.2019722046        0.5963177359       -0.0379000287
 N          2.2751786716       -3.3781854564        0.1809162490
 C          1.6042251710        2.2062096842       -0.1181577833
 C          2.0854483840        3.6160852313       -0.2048499376
 N          0.6599136593       -1.6724221280        0.1051499349
 N          0.7631113006       -0.3401574922        0.0137752890
 C          0.2358018742        1.9078321527       -0.1097479179
 H         -2.2111315927        1.9360497887        1.1265724855
 H         -4.5946150939        1.3515826772        1.1271331505
 H         -5.3684544104       -0.7002970679       -0.0050324207
 H         -3.7373088389       -2.1625095435       -1.1433084002
 H         -1.3491745984       -1.5815558138       -1.1436147033
 H          1.5577022258       -4.0374006161        0.4271322989
 H          3.2320468314       -3.5847950521        0.4074891485
 H          1.2525123844        4.3111249031       -0.2012873660
 H          2.7467533945        3.8274574459        0.6316661131
 H          2.6652773736        3.7459251946       -1.1156788072
 H         -0.4882717226        2.7010899146       -0.1813104229
  28
        -45.96553655
 C         -1.6316094300        0.2255666022       -0.0603452743
 C         -2.0588228783       -1.0927797197        0.1225860633
 C         -3.4049281223       -1.4084949472        0.1412370411
 C          1.9664597559       -2.0653273272        0.3373975038
 C         -4.3611300459       -0.4216302090       -0.0217876757
 C         -3.9546093245        0.8904270680       -0.2046257739
 C         -2.6121597002        1.2119809137       -0.2239129332
 C          2.1319905512        0.0106162411        0.0401472054
 N          2.5470923906        1.2496123348       -0.1297706005
 N          2.8704319089       -1.0706023094        0.2108126631
 C         -0.2075433601        0.5774487424       -0.0835714836
 N          2.3211093976       -3.3522449670        0.4723612374
 C          1.6171207783        2.1769708988       -0.2803182900
 C          2.0772700641        3.5827612316       -0.4783199260
 N          0.6917525558       -1.6725192644        0.2629921269
 N          0.7705084330       -0.3471398028        0.0689459675
 C          0.2506075249        1.8749107683       -0.2623919321
 H         -1.3258343194       -1.8707817593        0.2493035486
 H         -3.7043935343       -2.4353462202        0.2844196433
 H         -5.4111291054       -0.6694814339       -0.0073403442
 H         -4.6889237408        1.6707612371       -0.3336354018
 H         -2.3389898242        2.2436004388       -0.3688695152
 H          1.6104003367       -4.0027269129        0.7571336427
 H          3.2812517372       -3.5340917250        0.7054328588
 H          1.7717112627        3.9361408149       -1.4609163247
 H          1.6298709826        4.2319676153        0.2705479383
 H          3.1584859571        3.6247533203       -0.4011449997
 H         -0.4452540559        2.6834846171       -0.3925524827
  28
        -45.96377330
 C         -1.6126107151        0.2319207535       -0.0745352736
 C         -2.3027648180        0.2121627743        1.1310051181
 C         -3.6362849137       -0.1562617773        1.1578393282
 C          1.8800061493       -2.0497885229        0.3764481348
 C         -4.2849520678       -0.5058377166       -0.0147290681
 C         -3.5985347841       -0.4854266226       -1.2172554494
 C         -2.2652627632       -0.1165274736       -1.2504636450
 C          2.1191768411        0.0172364111        0.0475267418
 N          2.5419848405        1.2538069344       -0.1405259207
 N          2.8206024253       -1.0842403198        0.2434869498
 C         -0.1899167887        0.6286788095       -0.1064424019
 N          2.2002318443       -3.3422169303        0.5363895385
 C          1.6300917593        2.1942931721       -0.3142972481
 C          2.1167055060        3.5885766554       -0.5233778993
 N          0.6161537255       -1.6222378389        0.2827125379
 N          0.7549352255       -0.3078267364        0.0696384527
 C          0.2513569924        1.9169223700       -0.3053783345
 H         -1.7925238031        0.4853171402        2.0427302766
 H         -4.1675929544       -0.1704463382        2.0968565948
 H         -5.3238801195       -0.7952894043        0.0089322027
 H         -4.1000053239       -0.7580058832       -2.1328634246
 H         -1.7255646784       -0.0998240569       -2.1856093833
 H          1.4688510384       -3.9704334297        0.8180925260
 H          3.1528847185       -3.5468901037        0.7813337381
 H          1.7718066736        3.9612976845       -1.4851640787
 H          1.7205102984        4.2394844450        0.2527392872
 H          3.2008217718        3.6039711350       -0.4939800015
 H         -0.4657222711        2.7067124803       -0.4516697720
