  32
        -57.52001532
 O         -3.0944549358        2.4908178392       -0.2555075111
 C         -2.1521744247        1.7165971007       -0.1136771876
 N         -2.2633932591        0.3804396248        0.1177986073
 C         -3.4065180040       -0.4225442315        0.1291533795
 C         -4.6815022406        0.0601746077       -0.1484999444
 C         -5.7631209799       -0.8022214009       -0.1266917110
 C         -5.5931034846       -2.1439919135        0.1683698716
 C         -4.3237267830       -2.6266042652        0.4430230399
 C         -3.2363943767       -1.7750100119        0.4236242669
 N         -0.8719977876        2.2005688718       -0.1394075439
 C          0.3537623141        1.5163587527       -0.1200546943
 C          0.5603992735        0.3437748500       -0.8468207428
 C          1.7853853465       -0.2921731803       -0.8060360721
 C          2.8347555445        0.2327740076       -0.0553906219
 C          2.6362845041        1.4238308217        0.6414146726
 C          1.4122129309        2.0576122901        0.6087736441
 C          4.1156256549       -0.4398887045       -0.0126520221
 N          5.1924340868        0.0026320712        0.6618620231
 N          6.1307186480       -0.9037755712        0.4326596835
 N          5.6596789104       -1.8488557172       -0.3368700709
 N          4.3953413882       -1.5965131164       -0.6406985086
 H         -1.4013102826       -0.1045544267        0.3333931165
 H         -4.8141516472        1.1050331794       -0.3755603194
 H         -6.7472788760       -0.4158728456       -0.3431455563
 H         -6.4418207356       -2.8094995659        0.1839137341
 H         -4.1769442136       -3.6709248266        0.6727836961
 H         -2.2459834589       -2.1528083948        0.6346425779
 H         -0.8208226945        3.2093616472       -0.0954933900
 H         -0.2228306421       -0.0549710007       -1.4736530879
 H          1.9565866777       -1.2005708725       -1.3629781130
 H          3.4608071692        1.8318129204        1.2055410218
 H          1.2688730311        2.9788304854        1.1524036895
  32
        -57.51977411
 O         -1.7331766607       -1.2425165138        0.0005850454
 C         -1.8653461873       -0.0262578761        0.0169620631
 N         -3.0765938182        0.6130692701        0.0411246262
 C         -4.3633864737        0.0640116294        0.0559982442
 C         -5.4376388711        0.9536550078        0.0845291925
 C         -6.7360881817        0.4833970817        0.1006973286
 C         -6.9846724735       -0.8793708021        0.0887094508
 C         -5.9207408957       -1.7643817904        0.0603957105
 C         -4.6159135847       -1.3041495179        0.0439449696
 N         -0.8216138409        0.8625455817        0.0127721975
 C          0.5534716645        0.6071921985       -0.0065257048
 C          1.0986865887       -0.6735908189       -0.0248589838
 C          2.4687691135       -0.8422028060       -0.0419986016
 C          3.3259301469        0.2552619882       -0.0414494859
 C          2.7769637496        1.5363498951       -0.0238479970
 C          1.4102874964        1.7095164621       -0.0065875508
 C          4.7623483523        0.0733876775       -0.0581015512
 N          5.3873832351       -1.1180219252       -0.0666609026
 N          6.6795548893       -0.8219263020       -0.0803560085
 N          6.8402763269        0.4742906038       -0.0804265701
 N          5.6594559475        1.0763991017       -0.0666135979
 H         -3.0675119878        1.6242288842        0.0536385296
 H         -5.2504941732        2.0172664619        0.0942276236
 H         -7.5565496023        1.1840503644        0.1228958999
 H         -7.9982444907       -1.2483022708        0.1014034553
 H         -6.1009293022       -2.8286616527        0.0507523979
 H         -3.7910467108       -1.9967366109        0.0219328071
 H         -1.0441217823        1.8490263797        0.0272765289
 H          0.4478051228       -1.5321864810       -0.0255397040
 H          2.9003938154       -1.8317427184       -0.0555345679
 H          3.4472524846        2.3824443118       -0.0237811361
 H          1.0024186526        2.7095254782        0.0071311105
  32
        -57.51896934
 O         -1.5820891378        2.7487847657        0.1310724581
 C         -1.9947630744        1.5932565039        0.1823728637
 N         -3.3426151905        1.3601838441        0.2190516677
 C         -4.0609472172        0.1605929343        0.1034011579
 C         -3.6668330478       -0.8626212345       -0.7571161527
 C         -4.4212401449       -2.0197075482       -0.8471302956
 C         -5.5769491148       -2.1668890012       -0.0994248259
 C         -5.9877969239       -1.1386601958        0.7333961869
 C         -5.2387636068        0.0183646494        0.8345639045
 N         -1.2133934673        0.4802637955        0.2577352288
 C          0.1755061651        0.3674414274        0.1620349936
 C          0.7305803251       -0.9019860856        0.3295363555
 C          2.0921990354       -1.0886259849        0.2307877590
 C          2.9345098419       -0.0115456811       -0.0403181515
 C          2.3762126944        1.2533386905       -0.2078999087
 C          1.0128937807        1.4457568252       -0.1091331328
 C          4.3651828505       -0.2082251054       -0.1468732548
 N          4.9871446327       -1.3924110692        0.0003610142
 N          6.2731566790       -1.1234448934       -0.1752506545
 N          6.4333474559        0.1502049944       -0.4163183960
 N          5.2581919166        0.7637908860       -0.4076975877
 H         -3.8891538363        2.1957027528        0.3795368305
 H         -2.7931973158       -0.7421505084       -1.3796977455
 H         -4.1039924188       -2.8045678086       -1.5163987353
 H         -6.1591372442       -3.0715342516       -0.1743273601
 H         -6.8952064672       -1.2378525096        1.3084899198
 H         -5.5586337547        0.8195378756        1.4827931800
 H         -1.6926721954       -0.3916174927        0.4459612595
 H          0.0886311726       -1.7455861773        0.5370534738
 H          2.5326415333       -2.0656963298        0.3587957640
 H          3.0350642181        2.0825040396       -0.4176561581
 H          0.5918623199        2.4296014760       -0.2371116633
  32
        -57.51686334
 O         -3.3621580041        3.4847632728        0.2633588533
 C         -2.6540442950        2.4804378547        0.1667098653
 N         -3.0715483097        1.2925214224        0.6852423933
 C         -2.6508524035       -0.0111978341        0.3760865750
 C         -2.2632350280       -0.3664108935       -0.9119360941
 C         -1.8395837078       -1.6555975868       -1.1744732925
 C         -1.8194044382       -2.6061240089       -0.1681442165
 C         -2.2432659733       -2.2649699454        1.1051095431
 C         -2.6601921884       -0.9759783396        1.3785172804
 N         -1.4491876994        2.5441625682       -0.4660954133
 C         -0.3346452869        1.6975768000       -0.3360753857
 C          0.4942665932        1.5010606055       -1.4375520718
 C          1.5902077552        0.6690903799       -1.3448542199
 C          1.8826886656        0.0173280245       -0.1485894167
 C          1.0689255372        0.2412221917        0.9597654631
 C         -0.0222783851        1.0797185952        0.8719050895
 C          3.0244342991       -0.8678062040       -0.0548179250
 N          3.8758245305       -1.1303168300       -1.0634817746
 N          4.7582882594       -1.9747155282       -0.5503824193
 N          4.4679044669       -2.2179597027        0.7001544539
 N          3.3844412136       -1.5417703336        1.0527035338
 H         -3.8683774483        1.3757860367        1.3024672577
 H         -2.2942260325        0.3647732408       -1.7041245408
 H         -1.5244964040       -1.9182168415       -2.1728204780
 H         -1.4772546246       -3.6079951411       -0.3767078697
 H         -2.2392988165       -3.0040262951        1.8914319497
 H         -2.9800946104       -0.7073508108        2.3736136845
 H         -1.3041469884        3.4029275701       -0.9801496635
 H          0.2714767559        1.9971229985       -2.3699674307
 H          2.2369705622        0.5015637230       -2.1925339158
 H          1.3172322478       -0.2508915887        1.8875313329
 H         -0.6304237813        1.2616724805        1.7441106434
  32
        -57.51686011
 O         -3.3316932590        3.4812018346       -0.4962567204
 C         -2.6316080501        2.4831583623       -0.3140281419
 N         -3.0964839602        1.2477213312       -0.6489766288
 C         -2.6784732982       -0.0154026622       -0.2005490172
 C         -2.7816683401       -1.1018218813       -1.0636895913
 C         -2.3741592239       -2.3566921948       -0.6522227589
 C         -1.8656930383       -2.5423420074        0.6222044619
 C         -1.7908114602       -1.4684998056        1.4927754178
 C         -2.2046613098       -0.2118987914        1.0927026390
 N         -1.3890483628        2.6023511006        0.2318952367
 C         -0.2930660193        1.7270998088        0.1395099335
 C         -0.0669014330        0.9541966551       -0.9961909133
 C          1.0117171729        0.0965087679       -1.0474027467
 C          1.8973133263        0.0053611555        0.0241082472
 C          1.6889002020        0.8082053015        1.1436635579
 C          0.6065412193        1.6608543828        1.2003498105
 C          3.0263501434       -0.8990842136       -0.0306987189
 N          3.9379783557       -1.0475533444        0.9478383977
 N          4.7819407410       -1.9596707984        0.4888724145
 N          4.4123638191       -2.3497693791       -0.7021629941
 N          3.3129434796       -1.7074221951       -1.0674784312
 H         -3.9282595666        1.2693982156       -1.2239772885
 H         -3.1683694983       -0.9554369245       -2.0605833906
 H         -2.4450509500       -3.1916617554       -1.3321087742
 H         -1.5320573918       -3.5188947706        0.9373312911
 H         -1.4091307012       -1.6084696730        2.4926226188
 H         -2.1621375029        0.6161974666        1.7821977828
 H         -1.2017502291        3.5165677488        0.6216781790
 H         -0.7315108999        1.0308146770       -1.8424115779
 H          1.1946356193       -0.5133724433       -1.9186901992
 H          2.3898954555        0.7410304336        1.9615363150
 H          0.4497391307        2.2754510523        2.0737245361
  32
        -57.51685632
 O         -3.4283980047        3.2775029958       -1.0531740792
 C         -2.6948007467        2.3445859203       -0.7199554270
 N         -3.1188910090        1.0569999739       -0.8504840926
 C         -2.6494723865       -0.1048046851       -0.2164209760
 C         -2.1803640838       -0.0816921702        1.0931763902
 C         -1.7061560975       -1.2411660307        1.6771588675
 C         -1.7167642610       -2.4348644150        0.9759806249
 C         -2.2229724221       -2.4682197853       -0.3123336744
 C         -2.6903652896       -1.3116570278       -0.9073902435
 N         -1.4548702513        2.5898459296       -0.2121280192
 C         -0.3379387702        1.7384492111       -0.1536095005
 C         -0.0802439587        0.8028066076       -1.1519577505
 C          1.0094428505       -0.0361065560       -1.0510455134
 C          1.8756705622        0.0543742583        0.0362472626
 C          1.6398470209        1.0223841918        1.0102275752
 C          0.5457591365        1.8566201302        0.9158736769
 C          3.0110360659       -0.8369226352        0.1470216545
 N          3.9047530495       -0.8186320946        1.1527824631
 N          4.7607421250       -1.7873579006        0.8625738332
 N          4.4148139843       -2.3677265975       -0.2556632486
 N          3.3194626951       -1.8009945821       -0.7395382847
 H         -3.9516456272        0.9584370235       -1.4157944978
 H         -2.1860378516        0.8416586104        1.6504406245
 H         -1.3265653995       -1.2107658601        2.6870981427
 H         -1.3342996201       -3.3344302686        1.4330369814
 H         -2.2437950621       -3.3977428233       -0.8600315318
 H         -3.0739268810       -1.3356568295       -1.9158657229
 H         -1.2967276333        3.5592305288        0.0285457977
 H         -0.7317910524        0.7358139829       -2.0091320146
 H          1.2148051855       -0.7732233986       -1.8119736099
 H          2.3277692898        1.0956112440        1.8386254188
 H          0.3658495008        2.5983465283        1.6791405080
  32
        -57.51179646
 O         -3.1159174918        2.1687149604       -0.4888678803
 C         -2.1283244338        1.4580500190       -0.3093490516
 N         -2.2069103640        0.1313233731       -0.0585537127
 C         -3.4647984660       -0.5244629478        0.0890343530
 C         -4.1476797552       -0.4692022470        1.2957330548
 C         -5.3672469249       -1.1103615025        1.4250291080
 C         -5.9047414494       -1.8049496078        0.3543590279
 C         -5.2233970872       -1.8558405575       -0.8499638556
 C         -4.0038383970       -1.2154254608       -0.9862323706
 N         -0.8743650765        2.0084917589       -0.3493234717
 C          0.3809070383        1.3921899743       -0.2537041048
 C          0.6599500322        0.1749439675       -0.8744616375
 C          1.9132655340       -0.3929095362       -0.7603444942
 C          2.9205977270        0.2445269584       -0.0399416002
 C          2.6500635211        1.4782686016        0.5498355212
 C          1.3975871645        2.0447934682        0.4433776371
 C          4.2315672971       -0.3573795471        0.0806113958
 N          5.2735852639        0.1959645978        0.7270550855
 N          6.2584910972       -0.6802068348        0.5928536574
 N          5.8469315563       -1.7118549373       -0.0947073901
 N          4.5774591954       -1.5501280400       -0.4371617376
 H         -1.3776740993       -0.3541045414        0.2518251641
 H         -3.7220860729        0.0817056715        2.1209004453
 H         -5.8975870797       -1.0642151371        2.3636053636
 H         -6.8559670563       -2.3032294962        0.4579104060
 H         -5.6414518220       -2.3920334325       -1.6877709616
 H         -3.4664071681       -1.2413791129       -1.9216679477
 H         -0.8781627744        3.0192270607       -0.3442842681
 H         -0.0909322278       -0.3119478232       -1.4771653735
 H          2.1398590292       -1.3351563073       -1.2353107865
 H          3.4417861566        1.9734881001        1.0909982273
 H          1.1993706921        3.0007498091        0.9039997477
