17
Coordinates from ORCA-job mol_1_1 E -785.848151328028
 C    2.38807400    1.60292200    0.02944800
 C    2.10575300    0.04921600    0.08646400
 C    0.93043400   -0.56273800    0.05945900
 C   -0.33646400    0.21576600    0.00070800
 C   -1.61750900   -0.15845800   -0.03079800
 O   -3.92539900    0.55814200   -0.22451600
 C   -2.74988100    0.98230100   -0.10586800
 O   -2.34424600    2.16877000   -0.04133400
 O   -2.10107200   -1.41258500   -0.01174100
 C    0.98856800   -2.14397800    0.07355000
 O   -0.11108300   -2.80581800    0.09162900
 O    2.11996700   -2.65905600    0.07369200
 O    3.21612000    1.94630600   -0.85831700
 O    1.79726400    2.33971800    0.86028900
 H    2.98193700   -0.58202200    0.09443900
 H   -0.18164500    1.27767000   -0.01363200
 H   -1.29604200   -2.07746400    0.03561600
17
Coordinates from ORCA-job mol_1_0 E -785.848142148990
 C    2.38172400    1.60947700   -0.02546400
 C    2.10235400    0.05707900    0.06822700
 C    0.92790800   -0.55699700    0.06098800
 C   -0.34075500    0.21800100   -0.00706500
 C   -1.62136200   -0.15909400   -0.01067000
 O   -2.35283100    2.16560400   -0.08156600
 C   -2.75721900    0.97707600   -0.10246900
 O   -3.93380000    0.54799300   -0.18868300
 O   -2.10155600   -1.41311300    0.05213300
 C    0.98913000   -2.13755100    0.10839900
 O   -0.10854500   -2.80025200    0.16842400
 O    2.12116000   -2.65097200    0.09276800
 O    3.19882400    1.93470000   -0.93007600
 O    1.79934400    2.36332500    0.79593100
 H    2.97959600   -0.57255000    0.08448200
 H   -0.18800700    1.27924800   -0.05398400
 H   -1.29482300   -2.07534200    0.10856400
17
Coordinates from ORCA-job mol_1_3 E -785.848129472045
 C    2.38028000    1.59657300    0.11425000
 C    2.09900500    0.04103100    0.13073900
 C    0.92186600   -0.56598700    0.08496100
 C   -0.33998300    0.21808100   -0.00557700
 C   -1.61791500   -0.15132200   -0.11647400
 O   -2.33817900    2.17655500   -0.06866700
 C   -2.74404700    0.99503300   -0.19403600
 O   -3.91509400    0.58023000   -0.37403600
 O   -2.10160000   -1.40399600   -0.18124500
 C    0.96721200   -2.14551100    0.15400100
 O    2.07917000   -2.66280100    0.35794200
 O   -0.12101800   -2.80486200   -0.01620500
 O    1.90300400    2.26588100   -0.83799600
 O    3.09101600    2.00742600    1.07189800
 H    2.96884200   -0.59011800    0.23758700
 H   -0.18622100    1.27985600    0.01906300
 H   -1.29999300   -2.07202700   -0.12421900
17
Coordinates from ORCA-job mol_1_5 E -785.844180383509
 C    2.24552900    1.35555400    0.44343800
 C    1.88441300   -0.13837900    0.27483600
 C    0.78679400   -0.80680900   -0.05893900
 C   -0.61027400   -0.42424400   -0.32681900
 C   -1.35180000    0.63623500    0.02481000
 O   -3.56504100    1.63520900    0.00138600
 C   -2.92571700    0.60964300   -0.33697700
 O   -3.34157200   -0.42383000   -0.91466600
 O   -0.96394800    1.73219400    0.67809900
 C    1.01696400   -2.40487500   -0.21937900
 O    0.06638000   -3.05230000   -0.72019300
 O    2.12939400   -2.83888100    0.16683300
 O    1.35236000    2.27009000    0.27511600
 O    3.44140800    1.59046100    0.71081100
 H    2.74637100   -0.76959200    0.42203100
 H   -1.15842200   -1.20888000   -0.81293800
 H    0.06651400    1.94440500    0.53144400
