24
Coordinates from ORCA-job mol_129_3 E -490.710410774450
 C   -2.16694500   -1.09643000   -0.29672400
 N    0.60290100   -0.57850500    0.46928900
 O   -3.39114100   -1.11037000   -0.51629600
 C   -1.70807100   -0.60992500    1.16779400
 N    1.72853500    0.17311000   -0.08634200
 O   -1.23033300   -1.44526300   -1.08729100
 C   -0.42241500    0.26158400    1.12856000
 C    1.34197800    1.07684800   -1.24194400
 C    2.39530800    0.98710300    1.00103200
 C    2.70806100   -0.86995000   -0.58618300
 H    0.09050400   -1.06334400   -0.32886900
 H   -1.52095200   -1.48707300    1.77901300
 H   -2.51064400   -0.04739200    1.62823700
 H   -0.63074700    1.18269100    0.58420000
 H   -0.10955200    0.53361900    2.13598400
 H    0.68725600    1.86793000   -0.87557700
 H    2.25397900    1.50985200   -1.65914500
 H    0.82879300    0.46877400   -1.99045700
 H    3.31115200    1.41865800    0.59035600
 H    1.71450300    1.77852500    1.31805500
 H    2.62112000    0.31570100    1.83243800
 H    3.58605800   -0.35980200   -0.98901100
 H    2.97917800   -1.50668300    0.25859000
 H    2.21234700   -1.45470800   -1.36484600
24
Coordinates from ORCA-job mol_129_0 E -490.710328893246
 C   -2.32734000    0.21785800    0.22196200
 N    0.52433000   -0.29782700    0.57567500
 O   -3.53305500    0.26789400   -0.07967900
 C   -1.67984500   -1.25243700    0.33013100
 N    1.77078900    0.14502900   -0.05018500
 O   -1.54862800    1.19273000    0.47985900
 C   -0.22409700   -1.30496700   -0.20960600
 C    2.67872300   -1.04188200   -0.28928800
 C    1.56399200    0.90437600   -1.34771800
 C    2.42966100    1.06681900    0.95680800
 H   -0.13488900    0.53536600    0.65438800
 H   -2.29271600   -1.95608400   -0.21930200
 H   -1.68101800   -1.55253100    1.37318100
 H    0.20307900   -2.29770300   -0.07269300
 H   -0.23072600   -1.08945700   -1.27807100
 H    2.23978800   -1.67231400   -1.06400600
 H    3.65173200   -0.66670200   -0.61504800
 H    2.76857500   -1.59069400    0.65071900
 H    2.53281600    1.28466300   -1.67956800
 H    1.15114200    0.22962000   -2.09819100
 H    0.87509200    1.72919900   -1.15074900
 H    3.38364200    1.40563700    0.54645600
 H    1.76215600    1.91476200    1.12839900
 H    2.57930600    0.50235900    1.87961400
24
Coordinates from ORCA-job mol_129_1 E -490.707429996291
 C   -2.21180900    0.04826800    0.50868000
 N    0.50500800   -0.90582700   -0.11681400
 O   -1.39741800   -0.25099200    1.44530200
 C   -1.55729400    0.32986500   -0.93177100
 N    1.69864300   -0.05714700   -0.07849100
 O   -3.44534600    0.17607300    0.59366400
 C   -0.39157200   -0.64837400   -1.27611800
 C    2.33544900   -0.30655000    1.27512000
 C    2.66773600   -0.50898300   -1.15073100
 C    1.42809600    1.42745200   -0.22539300
 H   -0.09485100   -0.68241100    0.74240900
 H   -1.20352500    1.35359700   -0.94061900
 H   -2.32374700    0.24501300   -1.69195700
 H   -0.81568800   -1.61608100   -1.54507300
 H    0.16281300   -0.30044700   -2.14433000
 H    2.51151000   -1.38033400    1.36997300
 H    3.27483000    0.24871800    1.32488400
 H    1.64356000    0.03980000    2.04658900
 H    3.59845000    0.04993600   -1.02916400
 H    2.83622300   -1.57959200   -1.01784600
 H    2.23554500   -0.30758100   -2.13148600
 H    0.70503200    1.72021500    0.53884500
 H    2.37074700    1.96119300   -0.08474200
 H    1.03515900    1.61864600   -1.22421000
