18
Coordinates from ORCA-job mol_80_3 E -544.377776175699
  C       2.671113     -0.058016     -0.078775
  O       2.378631     -0.935189      0.757264
  O       3.656716      0.693942     -0.193589
  C       1.592009      0.154728     -1.315917
  O       1.945706      0.391756     -2.465048
  N       0.229357      0.090859     -1.057810
  O      -0.603809      0.286279     -2.148830
  C      -0.452505     -0.099830      0.218923
  C      -1.273207      1.161608      0.609383
  C      -1.361558     -1.359678      0.177632
  H       0.035161      0.527162     -2.868059
  H       0.344106     -0.260457      0.945214
  H      -2.063057      1.332810     -0.113035
  H      -1.721293      1.016438      1.586316
  H      -0.631576      2.035222      0.642962
  H      -2.076479     -1.275584     -0.632933
  H      -0.764696     -2.252887      0.029952
  H      -1.904621     -1.449164      1.112023
18
Coordinates from ORCA-job mol_80_4 E -544.374610509299
  C       1.966792      0.432013      0.898317
  O       1.650965     -0.032075      2.010352
  O       2.568250      1.467557      0.554901
  C       1.571186     -0.536544     -0.384033
  O       2.327921     -1.384947     -0.834820
  N       0.342875     -0.341026     -1.058632
  O       0.100319     -1.296600     -2.043395
  C      -0.906952      0.104135     -0.408441
  C      -0.829083      1.586758      0.042943
  C      -1.313277     -0.825252      0.769121
  H       0.875094     -1.911243     -1.966958
  H      -1.664616      0.035578     -1.188495
  H      -1.826501      1.926146      0.302378
  H      -0.195589      1.699661      0.913148
  H      -0.444663      2.207794     -0.758668
  H      -0.550756     -0.780908      1.540580
  H      -1.411649     -1.848564      0.424409
  H      -2.260316     -0.502482      1.187292
18
Coordinates from ORCA-job mol_80_1 E -544.380538753483
  C       2.424869     -1.014445      0.432590
  O       1.836998     -1.701435      1.291393
  O       3.413819     -1.245797     -0.288222
  C       1.847974      0.523568      0.218347
  O       2.587679      1.453735     -0.034306
  N       0.459653      0.752421      0.398084
  O       0.040688      2.041812      0.177940
  C      -0.550237     -0.289620      0.138513
  C      -1.817414     -0.028611      0.991962
  C      -0.909013     -0.380724     -1.372985
  H       0.124035      2.232763     -0.787443
  H      -0.087175     -1.221934      0.458530
  H      -1.562100      0.014615      2.044943
  H      -2.278328      0.909098      0.703391
  H      -2.532819     -0.828818      0.835985
  H      -1.610413     -1.191803     -1.534263
  H      -0.018929     -0.566077     -1.964571
  H      -1.369286      0.541250     -1.709889
18
Coordinates from ORCA-job mol_80_0 E -544.393482589817
  C       3.018288     -0.193104      0.409462
  O       2.981516     -1.405731      0.017546
  O       3.979966      0.490734      0.767659
  C       1.583478      0.588246      0.451974
  O       1.515350      1.754631      0.804590
  N       0.472468     -0.146421      0.086360
  O       0.564925     -1.453569     -0.358452
  C      -0.868870      0.436445      0.050500
  C      -1.856036     -0.400063      0.908784
  C      -1.384549      0.565689     -1.410004
  H       1.580857     -1.649675     -0.270049
  H      -0.770047      1.430380      0.483505
  H      -2.832862      0.071188      0.909247
  H      -1.951541     -1.397623      0.495989
  H      -1.501271     -0.475534      1.930671
  H      -0.707306      1.174649     -1.998465
  H      -1.457771     -0.416125     -1.863468
  H      -2.366594      1.025881     -1.415848
18
Coordinates from ORCA-job mol_80_2 E -544.391302221689
  C       2.619554      0.858685     -0.946371
  O       2.582172      2.097604     -0.645756
  O       3.517413      0.203466     -1.480166
  C       1.288166     -0.011880     -0.578911
  O       1.234309     -1.198587     -0.855787
  N       0.260172      0.663744      0.045718
  O       0.351312      2.014137      0.350386
  C      -0.995788      0.018470      0.447790
  C      -1.780833     -0.528042     -0.777472
  C      -0.758131     -1.101057      1.499905
  H       1.290627      2.266839     -0.018338
  H      -1.585929      0.807695      0.911689
  H      -1.961130      0.265159     -1.494253
  H      -1.215115     -1.316752     -1.258902
  H      -2.733678     -0.930107     -0.450912
  H      -0.224762     -0.706171      2.357274
  H      -1.711056     -1.498850      1.831358
  H      -0.177303     -1.904352      1.062747
