18
Coordinates from ORCA-job mol_80_3 E -544.380508404685
 C   -1.69378200   -0.47387000   -0.90475300
 O   -1.17693700   -0.94378700   -1.93784400
 O   -2.77592100   -0.70267400   -0.33239000
 C   -0.82990200    0.72244900   -0.15365600
 O   -1.36819400    1.68867200    0.34920900
 N    0.58618200    0.62667500   -0.16110300
 O    1.24804800    1.62610100    0.50943000
 C    1.28379500   -0.67172600   -0.20176200
 C    2.69900000   -0.49608100   -0.80873800
 C    1.36245100   -1.33031000    1.20602300
 H    1.06386400    1.52494000    1.47445900
 H    0.68558800   -1.29851800   -0.86134000
 H    3.18563200   -1.46252600   -0.88381500
 H    2.63490600   -0.05678400   -1.79804900
 H    3.30086000    0.14713300   -0.17703400
 H    1.82854900   -2.30628200    1.12790400
 H    1.95636700   -0.72056100    1.87755300
 H    0.36936800   -1.45031200    1.62560000
18
Coordinates from ORCA-job mol_80_0 E -544.377133975021
 C   -1.77304700   -0.55835400   -0.00379400
 O   -2.08481000   -0.94570500   -1.14656100
 O   -2.06768900   -0.96613900    1.13644500
 C   -0.79117400    0.77282900    0.00087600
 O   -1.17431500    1.93767700    0.00589000
 N    0.57714300    0.53776300   -0.00178800
 O    1.39489400    1.65691700    0.00448800
 C    1.27149500   -0.74540600   -0.00333500
 C    2.14510400   -0.90678000   -1.27865900
 C    2.13154900   -0.91768200    1.27982300
 H    0.73819200    2.40055400    0.00928500
 H    0.49553400   -1.50883900   -0.01071200
 H    2.61185100   -1.88593300   -1.27923800
 H    1.53596600   -0.80532900   -2.17025100
 H    2.92206000   -0.15090900   -1.29434000
 H    2.90755700   -0.16130300    1.31064100
 H    1.51274900   -0.82474600    2.16567500
 H    2.59917400   -1.89640700    1.27667400
