24
Coordinates from ORCA-job mol_129_9 E -490.699201361967
  C       3.783688      0.149969     -0.278467
  N       0.045176     -0.400932      0.693518
  O       3.550577      0.615857     -1.417774
  C       2.489549     -0.247917      0.609204
  N      -1.279058     -0.055908      0.188257
  O       4.885394     -0.055500      0.286447
  C       1.182261     -0.008432     -0.177337
  C      -1.509382      1.439316      0.049506
  C      -2.273818     -0.622472      1.185727
  C      -1.497926     -0.732971     -1.150689
  H       0.118487      0.023308      1.623246
  H       2.485315      0.346465      1.515885
  H       2.557340     -1.289423      0.899832
  H       1.175893     -0.627295     -1.071141
  H       1.129352      1.035208     -0.486374
  H      -2.552446      1.595638     -0.236919
  H      -1.302579      1.906576      1.015928
  H      -0.845025      1.832076     -0.721757
  H      -3.282538     -0.422386      0.815811
  H      -2.112983     -0.127822      2.147358
  H      -2.091069     -1.696859      1.266412
  H      -0.859919     -0.257366     -1.897527
  H      -2.549857     -0.608719     -1.419897
  H      -1.246432     -1.790412     -1.037512
24
Coordinates from ORCA-job mol_129_6 E -490.697642815585
  C       2.798240      1.138415     -0.076400
  N      -0.468596     -0.430241     -0.956216
  O       2.564233      0.593474      1.035544
  C       1.742294      0.811549     -1.253627
  N      -1.018045     -0.268656      0.382604
  O       3.729894      1.911596     -0.390072
  C       1.015508     -0.544145     -1.025405
  C      -0.398034      0.946986      1.049075
  C      -2.505966     -0.030038      0.208403
  C      -0.812276     -1.488831      1.262969
  H      -0.934243     -1.252053     -1.351698
  H       1.016551      1.614209     -1.298059
  H       2.262420      0.798555     -2.202457
  H       1.205252     -1.219294     -1.859327
  H       1.423737     -1.008416     -0.128018
  H       0.692482      0.782687      1.149301
  H      -0.607960      1.811148      0.418387
  H      -0.875116      1.058809      2.023749
  H      -2.631417      0.849174     -0.427564
  H      -2.943388     -0.914018     -0.263019
  H      -2.945268      0.134860      1.195117
  H      -1.227379     -2.357202      0.745116
  H       0.254563     -1.620821      1.447443
  H      -1.337485     -1.317747      2.205769
24
Coordinates from ORCA-job mol_129_2 E -490.707425590572
  C       2.781855      0.670639     -0.732575
  N       0.232019      0.549580      0.748449
  O       3.980942      0.686510     -1.060399
  C       2.199402     -0.735477     -0.215339
  N      -1.042731      0.173007      0.132185
  O       1.949767      1.636408     -0.789291
  C       1.173779     -0.584420      0.950321
  C      -1.736413      1.478758     -0.203676
  C      -1.888651     -0.567869      1.146299
  C      -0.918043     -0.652337     -1.133212
  H       0.745685      1.209285      0.079817
  H       3.021049     -1.356704      0.118618
  H       1.738904     -1.234211     -1.059409
  H       0.646207     -1.518688      1.126127
  H       1.718522     -0.356792      1.866924
  H      -1.800146      2.069468      0.712819
  H      -2.732089      1.253416     -0.592121
  H      -1.139328      1.998794     -0.956604
  H      -1.409430     -1.517491      1.387173
  H      -2.873349     -0.744749      0.707495
  H      -1.966700      0.059059      2.036969
  H      -1.916221     -0.777967     -1.559042
  H      -0.493313     -1.624636     -0.882306
  H      -0.271716     -0.113580     -1.829222
24
Coordinates from ORCA-job mol_129_0 E -490.710269244568
  C       2.819328      0.246771      0.978439
  N       0.370016      0.325034     -0.612748
  O       3.850374     -0.006697      1.626204
  C       2.552053     -0.665061     -0.321300
  N      -1.069494      0.276368     -0.354221
  O       1.960546      1.159936      1.207227
  C       1.046418     -0.988905     -0.524325
  C      -1.415931     -0.092558      1.075991
  C      -1.734168     -0.690857     -1.309530
  C      -1.584190      1.673673     -0.636952
  H       0.831992      0.921826      0.138722
  H       3.110153     -1.588712     -0.232900
  H       2.919734     -0.135137     -1.194188
  H       0.693372     -1.591678      0.312456
  H       0.894962     -1.563931     -1.437018
  H      -1.098698     -1.117626      1.269416
  H      -0.897672      0.602669      1.740359
  H      -2.497842     -0.006032      1.199558
  H      -1.425049     -0.427265     -2.323450
  H      -2.816273     -0.593028     -1.195352
  H      -1.418884     -1.705483     -1.061210
  H      -1.338693      1.917916     -1.672681
  H      -1.087048      2.363562      0.049337
  H      -2.665007      1.685217     -0.477808
24
Coordinates from ORCA-job mol_129_3 E -490.698573840513
  C       1.435342     -1.246170     -2.027151
  N      -0.231901     -0.512052      1.092661
  O       2.117336     -0.232626     -1.722245
  C       0.702004     -2.019187     -0.813187
  N      -0.536141      0.740036      0.420934
  O       1.256096     -1.757621     -3.155283
  C       0.886799     -1.335129      0.571543
  C      -1.455393      1.495494      1.363810
  C       0.736759      1.544802      0.221091
  C      -1.240040      0.572855     -0.914927
  H      -1.109078     -1.036209      1.146018
  H      -0.348860     -2.150490     -1.039239
  H       1.135820     -3.011269     -0.758687
  H       1.793008     -0.733924      0.554039
  H       1.014812     -2.093411      1.345459
  H      -0.930065      1.621913      2.312964
  H      -1.690450      2.462776      0.914129
  H      -2.364938      0.904872      1.500512
  H       0.442386      2.529650     -0.144190
  H       1.361233      1.008341     -0.518496
  H       1.233412      1.624244      1.189041
  H      -2.106561     -0.076304     -0.766956
  H      -1.557753      1.561929     -1.253143
  H      -0.543826      0.137478     -1.630041
24
Coordinates from ORCA-job mol_129_5 E -490.698501113115
  C       3.231897      0.331200      0.668649
  N       0.386581     -0.081462     -0.325630
  O       2.869147      1.401906      1.210104
  C       2.277398     -0.947576      0.940392
  N      -1.031397      0.210870     -0.491450
  O       4.245737      0.102158     -0.034965
  C       0.790140     -0.535794      1.026646
  C      -1.188726      0.757300     -1.899449
  C      -1.927694     -1.003647     -0.323983
  C      -1.442471      1.288916      0.492816
  H       0.626618     -0.771881     -1.043755
  H       2.414167     -1.693860      0.167588
  H       2.558418     -1.397267      1.886802
  H       0.703618      0.298750      1.718928
  H       0.173605     -1.361711      1.385497
  H      -0.547503      1.637608     -1.989120
  H      -2.238622      1.018579     -2.052512
  H      -0.880441     -0.020339     -2.603228
  H      -1.596075     -1.773054     -1.025868
  H      -1.855067     -1.359912      0.704784
  H      -2.953530     -0.698840     -0.545813
  H      -1.439676      0.869273      1.500176
  H      -0.726708      2.110504      0.408889
  H      -2.449415      1.618277      0.224501
24
Coordinates from ORCA-job mol_129_7 E -490.693515752833
  C       2.729429      0.683072     -0.381162
  N      -0.151799     -0.094110     -1.050746
  O       2.743492      1.562164      0.517020
  C       2.076001     -0.727995      0.048984
  N      -0.969585      0.210871      0.123075
  O       3.154355      0.744755     -1.557751
  C       0.906509     -1.127386     -0.882482
  C      -2.333136      0.653697     -0.382211
  C      -1.175113     -0.958674      1.070250
  C      -0.340539      1.386841      0.856980
  H      -0.804683     -0.379397     -1.785974
  H       1.765494     -0.699020      1.083367
  H       2.826554     -1.505867     -0.041333
  H       1.300662     -1.243800     -1.893230
  H       0.481305     -2.088682     -0.586593
  H      -2.822994     -0.206676     -0.846449
  H      -2.178930      1.455335     -1.108943
  H      -2.912957      1.011885      0.471842
  H      -1.880283     -0.639058      1.840789
  H      -0.221141     -1.227547      1.523520
  H      -1.586514     -1.795759      0.501724
  H      -0.883361      1.527305      1.793833
  H       0.726273      1.195033      1.025475
  H      -0.449040      2.263013      0.215765
24
Coordinates from ORCA-job mol_129_4 E -490.697059750485
  C       2.422247      1.125435     -0.337568
  N      -0.157872     -1.262576      0.349841
  O       1.805262      1.339130     -1.414212
  C       2.242005     -0.339191      0.319858
  N      -1.007239     -0.075938      0.290206
  O       3.183221      1.893121      0.293332
  C       1.148031     -1.199226     -0.363889
  C      -0.532606      0.935675      1.315513
  C      -1.061042      0.576598     -1.082542
  C      -2.401192     -0.526140      0.689510
  H      -0.724746     -2.025415     -0.032008
  H       2.055057     -0.254670      1.382339
  H       3.190015     -0.853514      0.206045
  H       1.458447     -2.244699     -0.385527
  H       1.035850     -0.868236     -1.397051
  H      -1.281687      1.728365      1.376454
  H      -0.431599      0.420368      2.273031
  H       0.421791      1.347529      0.993206
  H      -0.045933      0.943224     -1.324501
  H      -1.777642      1.397191     -1.026939
  H      -1.395875     -0.176169     -1.797973
  H      -2.334172     -1.005622      1.669282
  H      -2.763695     -1.229645     -0.064539
  H      -3.046628      0.354403      0.730250
24
Coordinates from ORCA-job mol_129_8 E -490.697505061299
  C       3.736735      0.311726      0.565106
  N       0.071932     -0.031820     -0.683686
  O       4.317420     -0.790873      0.705528
  C       2.492654      0.314974     -0.476742
  N      -1.263482     -0.132728     -0.105648
  O       3.967006      1.408339      1.128149
  C       1.190265     -0.019299      0.292373
  C      -2.223053     -0.263061     -1.275598
  C      -1.357504     -1.391332      0.734854
  C      -1.654360      1.073423      0.731337
  H       0.072397      0.811870     -1.265722
  H       2.394817      1.290283     -0.938060
  H       2.647496     -0.424673     -1.252282
  H       1.275463     -1.006223      0.743100
  H       1.036652      0.710178      1.089039
  H      -1.930130     -1.144768     -1.850756
  H      -3.235430     -0.371189     -0.878604
  H      -2.144148      0.641431     -1.884688
  H      -2.407169     -1.536351      1.001775
  H      -0.754589     -1.263545      1.635500
  H      -0.989444     -2.225815      0.132870
  H      -2.693707      0.945584      1.044316
  H      -1.547601      1.967071      0.110820
  H      -1.002222      1.126798      1.604692
24
Coordinates from ORCA-job mol_129_1 E -490.710392152075
  C       1.072885     -2.228882      1.603964
  N      -0.248987     -0.582277     -0.413185
  O      -0.048482     -1.689640      1.880103
  C       1.537455     -2.137748      0.065353
  N      -0.694823      0.809242     -0.498340
  O       1.835389     -2.833865      2.377964
  C       1.212613     -0.758756     -0.572759
  C      -2.209071      0.758232     -0.464817
  C      -0.208101      1.670325      0.652038
  C      -0.258079      1.414474     -1.814576
  H      -0.464832     -0.948139      0.564661
  H       2.602260     -2.323404     -0.000835
  H       1.026975     -2.914637     -0.494888
  H       1.790256      0.014719     -0.066893
  H       1.490575     -0.745800     -1.626079
  H      -2.541947      0.141450     -1.302269
  H      -2.594300      1.776737     -0.552385
  H      -2.513792      0.313167      0.485281
  H      -0.505433      1.187049      1.585678
  H      -0.673747      2.654513      0.564754
  H       0.876876      1.764805      0.596380
  H       0.828222      1.517063     -1.813135
  H      -0.729844      2.395016     -1.911641
  H      -0.582070      0.746355     -2.615588
