17
Coordinates from ORCA-job mol_1_3 E -785.835489904031
  C      -2.085630     -2.146648      0.224116
  C      -1.998188     -0.595923      0.493538
  C      -0.949531      0.206912      0.383824
  C       0.386068     -0.264922     -0.061253
  C       1.423901      0.468551     -0.436176
  O       2.957791     -1.389515     -0.920338
  C       2.817038     -0.154449     -0.911809
  O       3.621139      0.771739     -1.229990
  O       1.513182      1.826237     -0.510118
  C      -1.104299      1.735193      0.820400
  O      -0.589807      2.029950      1.929825
  O      -1.756523      2.474440      0.039309
  O      -1.272311     -2.668959     -0.583477
  O      -3.006814     -2.730251      0.863168
  H      -2.922264     -0.175741      0.858729
  H       0.517470     -1.332533     -0.113467
  H       2.448777      1.945919     -0.846278
17
Coordinates from ORCA-job mol_1_0 E -785.848120345018
  C      -2.706847     -0.749477      0.404558
  C      -1.928101      0.457199     -0.253985
  C      -0.617619      0.640270     -0.335195
  C       0.335706     -0.372431      0.194175
  C       1.669785     -0.426682      0.206639
  O       1.601485     -2.543989      1.407610
  C       2.372936     -1.718855      0.859721
  O       3.622500     -1.767048      0.746271
  O       2.527520      0.485368     -0.283633
  C      -0.167435      1.998964     -1.011286
  O       1.085861      2.237521     -1.154047
  O      -1.074726      2.766694     -1.375396
  O      -2.363999     -1.918387      0.090822
  O      -3.633961     -0.397956      1.184932
  H      -2.550615      1.253148     -0.635320
  H      -0.147870     -1.222164      0.637933
  H       1.975379      1.277826     -0.683798
17
Coordinates from ORCA-job mol_1_2 E -785.848039501545
  C      -2.065291      1.929579      0.372805
  C      -0.670238      1.575298      1.022696
  C       0.181055      0.611203      0.697821
  C      -0.132516     -0.364340     -0.380085
  C       0.551241     -1.393209     -0.886190
  O       0.558272     -3.223917     -2.479395
  C      -0.119802     -2.248390     -2.073399
  O      -1.244561     -1.854412     -2.467964
  O       1.770653     -1.822763     -0.516522
  C       1.533870      0.602048      1.522035
  O       1.663790      1.484176      2.388179
  O       2.412262     -0.297763      1.264356
  O      -2.830957      0.989684      0.036193
  O      -2.277600      3.169679      0.269037
  H      -0.349691      2.256342      1.796379
  H      -1.097895     -0.203413     -0.821230
  H       2.117409     -1.209803      0.255284
17
Coordinates from ORCA-job mol_1_1 E -785.848160439509
  C      -1.274015     -1.336238      2.163087
  C      -0.611565     -1.730768      0.785321
  C      -0.045837     -0.939533     -0.115844
  C       0.086409      0.524045      0.117004
  C       0.532017      1.515720     -0.658203
  O       1.008345      3.889408     -0.825164
  C       0.528274      3.012028     -0.066196
  O       0.051551      3.145703      1.087370
  O       1.003585      1.420614     -1.913484
  C       0.445939     -1.666841     -1.434128
  O       0.919355     -0.959833     -2.394945
  O       0.338453     -2.905103     -1.459284
  O      -2.379600     -1.904849      2.380999
  O      -0.662596     -0.531414      2.911942
  H      -0.689720     -2.775892      0.525885
  H      -0.243409      0.827983      1.092927
  H       0.992813      0.414970     -2.197286
