14
Coordinates from ORCA-job mol_110_100 E -795.693756289039
 O   -2.42026400   -0.56151400   -1.36237200
 C   -1.56978800   -1.16771300   -0.65681500
 O   -1.38244000   -2.37834400   -0.46084500
 C   -0.59341600   -0.08693100    0.12768300
 O   -1.06193800    1.18861400   -0.25485100
 O   -0.65420700   -0.29083200    1.52361900
 C    0.94757300   -0.17733900   -0.30946400
 F    1.46188200   -1.40705200    0.00613900
 F    1.07562700   -0.05254100   -1.66016500
 C    1.80471500    1.01249400    0.48436800
 O    2.53032300    1.71965700   -0.22653300
 O    1.57652000    1.02679300    1.72521700
 H   -1.82904000    0.96438700   -0.84598000
 H    0.11445100    0.21032000    1.90999700
14
Coordinates from ORCA-job mol_110_53 E -795.692681032526
 O   -2.11270700    0.42227900    0.35653600
 C   -1.58698100   -0.57677300   -0.16014000
 O   -2.07220000   -1.51428700   -0.84853500
 C    0.03753200   -0.80013700    0.06922300
 O    0.38181600   -0.94252400    1.43798600
 O    0.35453800   -1.97223300   -0.63589200
 C    0.82405100    0.46838400   -0.51868600
 F    0.44785400    0.70361700   -1.80794500
 F    2.17030700    0.20007500   -0.57090000
 C    0.57045700    1.82390900    0.41966500
 O    0.70607400    1.60390000    1.65528800
 O    0.30478700    2.85796500   -0.20505600
 H    0.50919600   -0.01696300    1.79066400
 H   -0.53472300   -2.25721100   -0.98220600
