18
Coordinates from ORCA-job mol_69_4 E -919.681218838411
 O   -3.09324000    0.36617400    1.57319700
 N   -2.77499200    0.18816900    0.22199100
 C   -3.44172100   -0.65148100   -0.59602300
 O   -4.42720200   -1.34667500   -0.29364400
 C   -1.58276600    0.87785200   -0.31501000
 C   -0.23661100    0.17363700    0.05382600
 C    1.01638500    0.96019600   -0.41955200
 P    2.70553200    0.09117300    0.07633000
 O    2.61917100   -0.01356100    1.53504100
 O    3.70635500    1.04117800   -0.41717800
 O    2.65682700   -1.18518000   -0.64079400
 H   -3.02280600   -0.66071600   -1.62126000
 H   -1.56728100    1.89079300    0.08168200
 H   -1.65501800    0.95669900   -1.39733600
 H   -0.24166800   -0.81871200   -0.37796800
 H   -0.20737500    0.04475600    1.12751400
 H    0.96101200    1.95366100    0.00215200
 H    0.94764800    1.08648500   -1.49069200
18
Coordinates from ORCA-job mol_69_2 E -919.680360523798
 O   -3.11268300    0.06002100   -1.39547900
 N   -2.59371900    0.26100400   -0.11186200
 C   -2.78308000   -0.59608800    0.91139300
 O   -3.44612900   -1.64713600    0.87773700
 C   -1.70310300    1.41680700    0.10692200
 C   -0.23465800    1.15934300   -0.37178800
 C    0.51896600    0.09573300    0.46976200
 P    2.38454200   -0.16122700   -0.07947300
 O    2.27446900   -0.68964600   -1.44168700
 O    2.87542700   -1.11792900    0.91707000
 O    2.95617300    1.18442200    0.02078700
 H   -2.28354700   -0.25794400    1.83982500
 H   -1.68560000    1.67531400    1.16315400
 H   -2.12163700    2.26606200   -0.43067900
 H    0.30089800    2.09971500   -0.33392900
 H   -0.26628000    0.85967000   -1.41131300
 H   -0.03221900   -0.83100300    0.41057200
 H    0.47252300    0.40381500    1.50471800
18
Coordinates from ORCA-job mol_69_1 E -919.680101664751
 O   -3.36958200    1.23752600    0.17193300
 N   -2.42634100    0.25889000   -0.16256700
 C   -2.68900300   -1.06340500   -0.16303600
 O   -3.77959200   -1.60296900    0.09585600
 C   -1.03818500    0.68547500   -0.43742700
 C   -0.24655700    1.07698800    0.84460300
 C    1.23458500    1.42017300    0.51670200
 P    2.32103800   -0.13240600    0.01262700
 O    1.75177400   -0.57463900   -1.26293100
 O    2.12376900   -1.05501900    1.13287000
 O    3.66457300    0.44673500   -0.08286200
 H   -1.80168200   -1.66537100   -0.44018800
 H   -1.06420100    1.54234300   -1.10711500
 H   -0.47846400   -0.10126600   -0.93986300
 H   -0.28313300    0.24207800    1.53241600
 H   -0.76363700    1.90137900    1.32344600
 H    1.66714300    1.88863300    1.38978100
 H    1.24196200    2.17074900   -0.26056300
18
Coordinates from ORCA-job mol_69_0 E -919.679767941675
 O   -3.41614700    0.91814100    0.13939000
 N   -2.23183000    0.29159700   -0.26776300
 C   -2.01316700   -1.03918900   -0.20476600
 O   -2.83165900   -1.89765400    0.17594200
 C   -1.09789600    1.13158200   -0.70422300
 C   -0.21825700    1.64012100    0.47815800
 C    0.61165800    0.49769600    1.12558800
 P    1.92696000   -0.31400600   -0.08019000
 O    2.75222600   -1.10433400    0.83911300
 O    2.60260200    0.83852200   -0.68093700
 O    1.11186100   -1.10646800   -1.00745500
 H   -0.98527300   -1.29845100   -0.54167900
 H   -1.50226800    1.97710200   -1.25637300
 H   -0.45151700    0.55773700   -1.36377300
 H   -0.86575000    2.13107500    1.19674700
 H    0.45601300    2.39570200    0.09496700
 H   -0.07252200   -0.24917200    1.49889400
 H    1.11066600    0.90798200    1.99246400
18
Coordinates from ORCA-job mol_69_6 E -919.679276239033
 O   -2.38339000   -1.10834200    1.44513600
 N   -2.32583100   -0.54186800    0.16462000
 C   -3.41771500   -0.21119700   -0.55413500
 O   -4.60414800   -0.37055000   -0.21697000
 C   -1.00329600   -0.21680200   -0.41169200
 C   -0.37187000    1.08831800    0.15466900
 C    1.03309300    1.34203600   -0.46350100
 P    2.42934600    0.12125300    0.17226100
 O    2.41240500    0.32312100    1.62309800
 O    3.62023100    0.63491600   -0.51150100
 O    1.98803400   -1.20247600   -0.27465600
 H   -3.15502000    0.23096800   -1.53481700
 H   -1.09033200   -0.11902100   -1.49042300
 H   -0.30131500   -1.02676300   -0.21863400
 H   -0.28996200    0.99125200    1.22924000
 H   -1.05681700    1.90749100   -0.03725800
 H    1.32201200    2.35694400   -0.22820600
 H    0.93664700    1.29997400   -1.53885200
18
Coordinates from ORCA-job mol_69_3 E -919.679158561477
 O   -3.05119000    1.13091100    0.91099700
 N   -2.56857000    0.23176200   -0.04738600
 C   -2.80093800   -1.09523300   -0.00732500
 O   -3.44757900   -1.70697800    0.86115400
 C   -1.75201400    0.74223400   -1.17388000
 C   -0.25956400    0.27184700   -1.14759100
 C    0.54951600    0.74259900    0.08836100
 P    2.38367800    0.05177300    0.07110700
 O    2.19021600   -1.40040400    0.06510500
 O    2.94743800    0.59544400    1.31028600
 O    2.94640400    0.60923900   -1.16124100
 H   -2.34778200   -1.62664200   -0.86653800
 H   -1.78360000    1.82639400   -1.11467900
 H   -2.20123800    0.45754800   -2.12596900
 H    0.21625400    0.63073000   -2.05197100
 H   -0.24192700   -0.80846700   -1.20179200
 H    0.02760600    0.41443000    0.97523500
 H    0.53379500    1.82286200    0.11111400
18
Coordinates from ORCA-job mol_69_7 E -919.676862301675
 O   -2.10553200   -1.67299500   -0.58794900
 N   -2.23066800   -0.28947500   -0.40484200
 C   -3.31022900    0.28625300    0.16056700
 O   -4.31331900   -0.29827700    0.60763600
 C   -1.15013000    0.61759000   -0.86437000
 C   -0.34226500    1.28532100    0.29174000
 C    0.64263800    0.30061200    0.98168300
 P    2.17138300   -0.20898800   -0.13606800
 O    2.98395800   -1.00094300    0.79265300
 O    2.75041600    1.08210200   -0.51656800
 O    1.57941600   -0.97272800   -1.23778400
 H   -3.22816800    1.39011300    0.19093100
 H   -1.56427200    1.39002300   -1.51112900
 H   -0.44771200    0.02141200   -1.44292800
 H   -1.04755500    1.71712000    0.99347300
 H    0.21913900    2.10989600   -0.12989200
 H    0.08517900   -0.56538400    1.30620700
 H    1.00612400    0.77612700    1.88225700
