18
Coordinates from ORCA-job mol_69_1 E -919.683910877412
 O   -3.12774500    0.86358200   -0.59923900
 N   -2.35922000   -0.23440800   -0.17648900
 C   -2.54101700   -1.48173200   -0.64637900
 O   -1.89478100   -2.50245300   -0.34918900
 C   -1.24418100   -0.02673200    0.76914500
 C    0.12669400    0.24811700    0.07090900
 C    1.29205300    0.47643400    1.07239900
 P    3.03632700    0.66322500    0.19142200
 O    3.94959000    0.84536100    1.32407400
 O    2.86635700    1.84140100   -0.66243600
 O    3.18629000   -0.60753700   -0.52237900
 H   -3.38680400   -1.50624000   -1.36023300
 H   -1.14130500   -0.90092500    1.40833900
 H   -1.49647600    0.81821400    1.40476300
 H    0.01660800    1.10973700   -0.57465200
 H    0.35233800   -0.59326100   -0.57044400
 H    1.30801600   -0.35939800    1.75741900
 H    1.05725500    1.34661600    1.66869800
18
Coordinates from ORCA-job mol_69_6 E -919.682676996828
 O   -1.96199600   -1.47107200   -1.57540600
 N   -1.94535700   -0.55599200   -0.51093400
 C   -2.62111100    0.60652300   -0.54374400
 O   -2.68503500    1.48170500    0.33841900
 C   -1.14765700   -0.86298400    0.69009700
 C    0.39395700   -0.80844100    0.42976100
 C    0.92831200    0.60617100    0.08067800
 P    2.86844800    0.67736800   -0.19967700
 O    3.08568800   -0.20739100   -1.34747200
 O    3.41713200    0.19418000    1.07048500
 O    3.09320800    2.10192900   -0.46540800
 H   -3.16122700    0.70144400   -1.50572200
 H   -1.42030100   -1.85741900    1.04249000
 H   -1.40629400   -0.15002300    1.46873000
 H    0.89470500   -1.18306800    1.31412500
 H    0.62326300   -1.49915600   -0.37089900
 H    0.40164000    0.95237000   -0.79650800
 H    0.64262500    1.27385600    0.88098200
18
Coordinates from ORCA-job mol_69_7 E -919.681857813354
 O   -3.06023300    0.11542000    1.22928400
 N   -2.18643500    0.41827800    0.17254600
 C   -2.59726400    0.53776700   -1.10225800
 O   -1.89976700    0.76877900   -2.10647000
 C   -0.73763900    0.53280700    0.43437200
 C    0.00730600   -0.83340300    0.39782000
 C    1.53741800   -0.66621900    0.62373800
 P    2.49464800    0.16460000   -0.87404500
 O    3.89661900   -0.04815500   -0.49998700
 O    2.05916700    1.56325100   -0.85163700
 O    2.04054800   -0.60870300   -2.03113000
 H   -3.69545300    0.41201400   -1.16527300
 H   -0.27073500    1.19111000   -0.29489800
 H   -0.60692900    0.98007100    1.41650400
 H   -0.44597900   -1.48174100    1.14007000
 H   -0.16963300   -1.28968000   -0.56716700
 H    1.95118900   -1.64861000    0.80456900
 H    1.68317500   -0.10758600    1.53728100
18
Coordinates from ORCA-job mol_69_8 E -919.681807192376
 O    2.32529500   -0.57153500    1.75148400
 N    2.07749200    0.13566300    0.56372900
 C    3.04107600    0.42117500   -0.32938000
 O    2.91444500    1.01664200   -1.41530400
 C    0.69701600    0.53425700    0.22323500
 C   -0.07587900   -0.53436600   -0.60495600
 C   -1.56495700   -0.12953200   -0.80073100
 P   -2.63795700   -0.24583600    0.83595700
 O   -3.98033300    0.09479900    0.35502300
 O   -2.03726900    0.74672500    1.73078600
 O   -2.46471300   -1.64050200    1.24995700
 H    4.02245800    0.05751200    0.03139400
 H    0.71673900    1.46543100   -0.33724200
 H    0.13080200    0.70579600    1.13764400
 H   -0.02290600   -1.47635900   -0.07558700
 H    0.43986000   -0.67345400   -1.54875200
 H   -1.99244900   -0.77557000   -1.55480700
 H   -1.58871900    0.86915800   -1.21244800
18
Coordinates from ORCA-job mol_69_4 E -919.681779071414
 O    1.93708300   -1.81774500    1.11755600
 N    1.92055900   -0.75651200    0.19611400
 C    2.70006900    0.33140700    0.32558300
 O    2.77415700    1.30183000   -0.44895700
 C    1.03066100   -0.80330200   -0.98273200
 C   -0.22855500    0.11988400   -0.86357200
 C   -1.20908200   -0.27826000    0.27162400
 P   -2.73514500    0.93945900    0.45663600
 O   -3.50015900    0.32460600    1.54589200
 O   -3.37854500    0.88711400   -0.85824400
 O   -2.10827400    2.22058600    0.79048000
 H    3.31522400    0.26059400    1.24303200
 H    1.59477200   -0.52642600   -1.87310000
 H    0.70786900   -1.83425500   -1.10100800
 H   -0.74507300    0.10233200   -1.81544500
 H    0.11555500    1.13482400   -0.71764900
 H   -0.64864700   -0.31732400    1.19372200
 H   -1.54246800   -1.28880900    0.08277700
18
Coordinates from ORCA-job mol_69_5 E -919.679636636774
 O   -2.86742100    1.24265600   -0.00908600
 N   -1.97574600    0.22054000    0.33079000
 C   -2.16827400   -1.07375700    0.00896300
 O   -3.14727100   -1.54764200   -0.59588700
 C   -0.70321100    0.59262900    0.98050600
 C    0.29659300    1.25939600   -0.01213300
 C    0.92259900    0.21154600   -0.97424300
 P    2.26842900   -0.93188300   -0.12729700
 O    1.55228200   -1.58622100    0.97129000
 O    3.30058500    0.02111900    0.29009700
 O    2.65782000   -1.82249400   -1.22517200
 H   -1.33969400   -1.71780000    0.36011600
 H   -0.92500500    1.27378200    1.79999800
 H   -0.20836500   -0.29128700    1.38042300
 H   -0.23379700    2.04166800   -0.54362000
 H    1.07807800    1.74163400    0.56118400
 H    0.11791400   -0.37362600   -1.39382400
 H    1.37448100    0.73973800   -1.80210600
18
Coordinates from ORCA-job mol_69_2 E -919.679601471584
 O   -2.82298200   -0.85498500   -1.50689000
 N   -2.17399400   -0.16334500   -0.47820500
 C   -2.63535500    0.98522800    0.05611600
 O   -3.69349100    1.56847600   -0.24088800
 C   -0.84318600   -0.63508900   -0.03984000
 C    0.32524100   -0.14684300   -0.94541100
 C    1.70514400   -0.56058900   -0.35761000
 P    2.17769600    0.39211100    1.29193800
 O    2.14507600    1.79892200    0.88377400
 O    3.51237000   -0.13571800    1.58882600
 O    1.13485400   -0.00261700    2.24345500
 H   -1.96029500    1.38129100    0.83999200
 H   -0.61508400   -0.30596400    0.97380100
 H   -0.85382400   -1.72193800   -0.03372100
 H    0.26943300    0.93175000   -1.01266100
 H    0.17174800   -0.53189700   -1.94755600
 H    2.45732400   -0.36856700   -1.11007300
 H    1.69932700   -1.63022900   -0.20504900
