12
Coordinates from ORCA-job mol_83_0 E -1139.853328420418
 F    1.95590100   -0.09187300    1.22910900
 C    1.54301200   -0.43110000   -0.00539100
 F    1.52758800   -1.77532500   -0.08460200
 F    2.43991600    0.03334000   -0.89327900
 C    0.05997700    0.14551700   -0.31146900
Cl    0.11749700    1.95660500   -0.22723800
 O   -0.75716300   -0.41362500    0.68078300
 C   -2.13251000   -0.60324000    0.41582300
 F   -2.75166700    0.58528400    0.22207900
 F   -2.29489600   -1.31681600   -0.72411900
 H   -0.22140600   -0.15189300   -1.34457300
 H   -2.55963300   -1.14771000    1.31112600
12
Coordinates from ORCA-job mol_83_5 E -1139.852961117487
 F    1.79573500   -0.15590900    1.31885300
 C    1.59919700   -0.45598100    0.02264600
 F    1.56553300   -1.79684800   -0.09610100
 F    2.64832000    0.00373200   -0.68180400
 C    0.20674300    0.16510400   -0.52403800
Cl    0.28493100    1.97533900   -0.42088100
 O   -0.78609200   -0.37691900    0.29604400
 C   -2.11686900   -0.40174200   -0.18931700
 F   -2.68664500   -1.49458000    0.35907400
 F   -2.78405300    0.67757900    0.28429100
 H    0.09459100   -0.11782900   -1.59353400
 H   -2.16076600   -0.43546900   -1.32204000
12
Coordinates from ORCA-job mol_83_4 E -1139.852588059616
 F    1.42540900   -1.79589900    0.23752900
 C    1.55347200   -0.46826600    0.05360200
 F    2.54349700   -0.25921100   -0.83219000
 F    1.91069100    0.08401100    1.22660200
 C    0.15145700    0.13920600   -0.48345600
Cl    0.35285000    1.91811800   -0.77756300
 O   -0.77675700   -0.12578900    0.52936800
 C   -2.15549300   -0.05946300    0.20440000
 F   -2.54129200   -1.23367600   -0.35246300
 F   -2.79169000    0.05947100    1.38628400
 H   -0.08870000   -0.35003900   -1.45278200
 H   -2.40084400    0.80498200   -0.48656100
