  38
        -58.43755510
 C          2.1631710369        1.1677405039       -0.1289306543
 C          2.4692394270        0.1863849781       -1.0830829854
 C          3.6584060224       -0.5036225937       -1.0154894627
 C          4.5651590354       -0.2607063955        0.0197765753
 C          4.2547775235        0.7128733223        0.9757404410
 C          3.0833180338        1.4287131494        0.8941278647
 C          5.8263640982       -1.0038694034        0.0969209608
 N          6.3336261242       -1.3011242337        1.2729021549
 N          6.4312466733       -1.3698735677       -1.0118315728
 N          1.0791387984        2.0062536395       -0.2851758301
 N         -0.1171411527        1.7310039633       -0.2973888701
 N         -0.5601271498        0.5228170966       -0.0065692581
 C         -1.9137504997        0.2417257324        0.0144769541
 C         -2.8513567353        1.2204733793       -0.3183059155
 C         -4.1953966636        0.9224201136       -0.2857303548
 C         -4.6316751408       -0.3598457727        0.0597288684
 C         -3.6868715407       -1.3370230614        0.3809876642
 C         -2.3412871643       -1.0385522603        0.3675270762
 C         -6.0663746799       -0.6742642443        0.0850484876
 N         -6.4727872594       -1.8659424281       -0.2900424521
 N         -6.9187232507        0.2417346496        0.4843554340
 H          1.7764584531       -0.0038786658       -1.8893462366
 H          3.8555351541       -1.2698184631       -1.7483970697
 H          4.9528936485        0.9497804867        1.7626780526
 H          2.8541043071        2.1940318481        1.6182057148
 H          7.2131010469       -1.7900039219        1.3544504798
 H          5.8456184028       -1.0605063891        2.1207975683
 H          7.2970631438       -1.8885111565       -0.9877092699
 H         -2.5063403133        2.2023412867       -0.5950556860
 H         -4.9039279968        1.6830834971       -0.5710574170
 H         -4.0002780463       -2.3233998515        0.6827616095
 H         -1.6193813855       -1.7954856992        0.6313789488
 H         -7.4512633637       -2.1145054982       -0.2722998906
 H         -5.8188617350       -2.5446577674       -0.6466868522
 H         -7.9123355994        0.0626804086        0.4986270560
 H          6.0737026564       -1.0894193122       -1.9109860977
 H         -6.5947355257        1.1359515703        0.8178424151
 H          0.0852916502       -0.2304371979        0.2451892340
  38
        -58.43747426
 C          2.1633424162        1.1572242443        0.1498046294
 C          3.0804552993        1.1705674077        1.2082692432
 C          4.2611358111        0.4718802999        1.1144086368
 C          4.5671235917       -0.2633709882       -0.0361994993
 C          3.6541742411       -0.2735499315       -1.0938952054
 C          2.4719010193        0.4267853630       -1.0067506068
 C          5.8314304466       -0.9990308644       -0.1363949218
 N          6.9096050806       -0.5117103424        0.4366436914
 N          5.8717617031       -2.1360075578       -0.7956918595
 N          1.0802821108        2.0109106145        0.1904798992
 N         -0.1163240380        1.7474969832        0.1157552571
 N         -0.5615080320        0.5057647216        0.1227896139
 C         -1.9158127474        0.2304593756        0.0768766317
 C         -2.8507398437        1.2624619448       -0.0164122234
 C         -4.1945113058        0.9676971956       -0.0767734463
 C         -4.6348747466       -0.3581123072       -0.0297085493
 C         -3.6937999708       -1.3849410482        0.0732275013
 C         -2.3467884549       -1.0958301727        0.1175954333
 C         -6.0700643717       -0.6658455472       -0.0887298849
 N         -6.5439263608       -1.6717093012        0.6109917355
 N         -6.8548550169        0.0692264466       -0.8429064341
 H          2.8417285793        1.7316065150        2.0976061568
 H          4.9322721519        0.4711845603        1.9584649897
 H          3.8785057489       -0.7995003343       -2.0082402877
 H          1.7876876852        0.4423972265       -1.8421323464
 H          7.7917788140       -1.0006864788        0.3935372670
 H          6.8890930297        0.3861310581        0.8933211059
 H          6.7344358780       -2.6504897615       -0.8969015137
 H         -2.5036602934        2.2816337634       -0.0391295873
 H         -4.9034998768        1.7785320830       -0.1206498329
 H         -4.0074151855       -2.4163818589        0.0779723815
 H         -1.6265426933       -1.8961634288        0.1836346057
 H         -7.5239753414       -1.9130357704        0.5827314536
 H         -5.9456919000       -2.1958339421        1.2297592272
 H         -7.8481306613       -0.1052607257       -0.8926178644
 H          5.0348872149       -2.5326372780       -1.1921036698
 H         -6.4753554660        0.8075324392       -1.4144875744
 H          0.0824225564       -0.2861860353        0.1970904145
  38
        -58.43727967
 C          2.1603417460        1.1229305608       -0.2660822358
 C          2.8198381168        0.5928229015       -1.3817440179
 C          4.0003820561       -0.0975882829       -1.2286224365
 C          4.5738658593       -0.2586645095        0.0364062807
 C          3.9213471939        0.2837671729        1.1475264866
 C          2.7286634398        0.9549498027        1.0031667240
 C          5.8437255347       -0.9739489626        0.1925158214
 N          6.6924411021       -0.5897937273        1.1204533575
 N          6.1166164500       -1.9925168465       -0.5929505002
 N          1.0760918448        1.9613300306       -0.4385598443
 N         -0.1213444990        1.7142101529       -0.3622989246
 N         -0.5642842526        0.4981091565       -0.1080265597
 C         -1.9191057934        0.2276844440       -0.0403990849
 C         -2.8583151564        1.2439599704       -0.2206820473
 C         -4.2030412242        0.9573169483       -0.1431304410
 C         -4.6390235402       -0.3487279413        0.0970192518
 C         -3.6933038682       -1.3619212108        0.2682069120
 C         -2.3459200829       -1.0765712931        0.2098671740
 C         -6.0751496362       -0.6501320654        0.1674934430
 N         -6.5191356762       -1.7902168997       -0.3108986231
 N         -6.8901709548        0.2259682778        0.7088187954
 H          2.3925154915        0.7366213176       -2.3618421266
 H          4.4971833449       -0.4743547766       -2.1084282780
 H          4.3209529417        0.1448668631        2.1394887102
 H          2.2257539758        1.3677756369        1.8641221957
 H          7.5707302125       -1.0684838074        1.2567316794
 H          6.5068601214        0.2260405758        1.6816622979
 H          6.9941979828       -2.4864613814       -0.5227079802
 H         -2.5142600295        2.2448704821       -0.4193878194
 H         -4.9146097251        1.7494189843       -0.3113388235
 H         -4.0052011512       -2.3702401926        0.4879177182
 H         -1.6223372702       -1.8628804769        0.3574676055
 H         -7.4991813343       -2.0295340497       -0.2686671338
 H         -5.8951058987       -2.4321440066       -0.7735933807
 H         -7.8844941972        0.0572288643        0.7576893120
 H          5.4451652830       -2.3144620306       -1.2714646253
 H         -6.5341384191        1.0757908992        1.1173420182
 H          0.0858230949       -0.2798467249        0.0335089411
  38
        -58.43725723
 C          2.1605442380        1.1433065523        0.0046891924
 C          2.7649137864        0.7552176513        1.2068732022
 C          3.9489800811        0.0534776983        1.1954113974
 C          4.5775474387       -0.2656267257       -0.0118757805
 C          3.9765077262        0.1300595095       -1.2109219458
 C          2.7840668068        0.8163524272       -1.2061466121
 C          5.8519772007       -0.9895931218       -0.0202561481
 N          6.0929611909       -1.8947052029        0.9026049646
 N          6.7384891980       -0.7257754359       -0.9549475227
 N          1.0778558769        2.0009792730        0.0147156249
 N         -0.1205337529        1.7475040197        0.0186977295
 N         -0.5670849025        0.5064799020        0.0087178184
 C         -1.9225541229        0.2312022250        0.0080367817
 C         -2.8598617806        1.2650600026        0.0129886248
 C         -4.2053289762        0.9715672335        0.0028268315
 C         -4.6437935029       -0.3555687108        0.0061910949
 C         -3.6997821693       -1.3847312547        0.0106377254
 C         -2.3519140892       -1.0959991673        0.0022631275
 C         -6.0804500257       -0.6624628772        0.0054285039
 N         -6.5187350078       -1.6989883664        0.6831316725
 N         -6.9017629114        0.1045329308       -0.6742840129
 H          2.2962042867        1.0216818637        2.1415534704
 H          4.4038015638       -0.2085008874        2.1373833506
 H          4.4179788160       -0.1345658870       -2.1585472754
 H          2.3209513449        1.1159456551       -2.1334600980
 H          6.9731606206       -2.3881028874        0.9329207089
 H          5.3949646199       -2.1297511989        1.5899132879
 H          7.6215252605       -1.2135857914       -0.9914503249
 H         -2.5138927510        2.2848186438        0.0238236043
 H         -4.9151344512        1.7823641408        0.0330672256
 H         -4.0136690012       -2.4156099807       -0.0207161869
 H         -1.6298152335       -1.8972911343       -0.0089695719
 H         -7.4989396619       -1.9410212656        0.6936324104
 H         -5.8895494226       -2.2496765048        1.2455882478
 H         -7.8963275884       -0.0694426290       -0.6818608894
 H          6.5758542305        0.0081334549       -1.6257061414
 H         -6.5508516835        0.8677092955       -1.2312591358
 H          0.0813713971       -0.2855903003       -0.0002020453
  38
        -58.43553284
 C          2.2930601968        0.7477887007       -0.4688603889
 C          3.4057068061        1.5971740414       -0.4434291801
 C          4.6483353469        1.1038910010       -0.1192229331
 C          4.8232629861       -0.2561025265        0.1585952335
 C          3.7155293707       -1.1084630360        0.1113916900
 C          2.4678280868       -0.6150964017       -0.1903192777
 C          6.1515597317       -0.7817443058        0.4911055333
 N          6.4856161649       -1.9917790257        0.1003881826
 N          6.9878683586       -0.0375705618        1.1802642034
 N          1.0897588448        1.2842699987       -0.8604429018
 N          0.0303996638        0.7064837206       -0.4526818347
 N         -1.0798453089        1.1853464188       -0.9483227553
 C         -2.3114635281        0.7052371742       -0.5586561057
 C         -3.4682324137        1.2507841497       -1.1195750817
 C         -4.7061777346        0.7728975970       -0.7490217537
 C         -4.8177175242       -0.2461851652        0.2005413922
 C         -3.6563342244       -0.7822183602        0.7643693129
 C         -2.4163570731       -0.3202987240        0.3845655793
 C         -6.1386033328       -0.7473571951        0.6024659650
 N         -7.0980666170       -0.8267802034       -0.2913956322
 N         -6.3373551851       -1.1102379154        1.8491986258
 H          3.2676337111        2.6421244300       -0.6691714096
 H          5.4939962980        1.7731253894       -0.1282557014
 H          3.8205662517       -2.1542034555        0.3539265909
 H          1.6083164496       -1.2658138686       -0.2258392655
 H          7.3881542848       -2.3837360178        0.3264166065
 H          5.8626891746       -2.5367169188       -0.4742420811
 H          7.9143183515       -0.3664119489        1.4100354463
 H         -3.3906195263        2.0472762109       -1.8427324546
 H         -5.5881883927        1.2255460799       -1.1726591704
 H         -3.7167912774       -1.5919537804        1.4733801308
 H         -1.5165610122       -0.7355008206        0.8061402614
 H         -8.0203198740       -1.1537170390       -0.0422206210
 H         -6.9230575599       -0.5969325782       -1.2567987091
 H         -7.2303896186       -1.4697625108        2.1537902089
 H          6.7084612163        0.8684374315        1.5211740916
 H         -5.6129466112       -0.9948458244        2.5403304506
 H         -1.0400041119        1.9414570586       -1.6371295733
  38
        -58.43542949
 C          2.2917039058        0.7108180233       -0.5304537766
 C          3.3966868894        1.0159708270       -1.3340429633
 C          4.6422232855        0.5246449702       -1.0176200043
 C          4.8209962848       -0.2882191136        0.1067771629
 C          3.7185188888       -0.5884158391        0.9124377006
 C          2.4737875827       -0.0892291441        0.6060327103
 C          6.1493210554       -0.8156199606        0.4397197560
 N          6.2543689648       -2.0116805747        0.9745702168
 N          7.2150571212       -0.0849666657        0.1989186082
 N          1.0890569233        1.2943543258       -0.8534154485
 N          0.0300218057        0.6990740915       -0.4699058107
 N         -1.0786316205        1.3503077325       -0.7026777493
 C         -2.3101731143        0.8121932399       -0.3977983813
 C         -3.4656166661        1.5492643418       -0.6660888292
 C         -4.7031709826        1.0293627556       -0.3556084720
 C         -4.8158747622       -0.2424059646        0.2122998232
 C         -3.6559183567       -0.9784790496        0.4706527107
 C         -2.4161282848       -0.4562780841        0.1785542285
 C         -6.1364909719       -0.7997333297        0.5328774896
 N         -7.0855032037       -0.0020137634        0.9673926691
 N         -6.3455205984       -2.0877710680        0.3819075141
 H          3.2502119337        1.6294149624       -2.2082612543
 H          5.4716443967        0.7447314568       -1.6708327275
 H          3.8395866637       -1.1805140976        1.8058734977
 H          1.6242865659       -0.2963684234        1.2375272939
 H          7.1539549197       -2.3954715123        1.2251435172
 H          5.4388272988       -2.5885231381        1.1069559065
 H          8.1423261242       -0.4283352015        0.4029401938
 H         -3.3873370291        2.5258348090       -1.1172796117
 H         -5.5846174500        1.6019553191       -0.5955414390
 H         -3.7169053963       -1.9472558873        0.9394360385
 H         -1.5171530831       -1.0122824265        0.3845767629
 H         -8.0072621244       -0.3536947616        1.1823876828
 H         -6.9025682537        0.9752097057        1.1316054480
 H         -7.2385379653       -2.5029162943        0.6048840315
 H          7.1259024562        0.8509265719       -0.1634685485
 H         -5.6298336417       -2.6833482121       -0.0038863824
 H         -1.0375083907        2.2800857786       -1.1288065964
  38
        -58.43510856
 C          2.2997070483        0.8661850977        0.0033284237
 C          2.4295048752       -0.5261084784        0.1004107890
 C          3.6755662761       -1.1089019368        0.0863106245
 C          4.8267211663       -0.3202729552       -0.0033944464
 C          4.6987010495        1.0688436946       -0.0876187310
 C          3.4523213866        1.6538605439       -0.0924475258
 C          6.1561297325       -0.9450174314       -0.0061928315
 N          6.3265875781       -2.0960051092       -0.6163541913
 N          7.1522471619       -0.3440398237        0.6040646857
 N          1.0965652012        1.5420260174        0.0188258643
 N          0.0390491375        0.8236926853       -0.0041715321
 N         -1.0720701915        1.5095059998        0.0374709860
 C         -2.3071600797        0.9011094266        0.0190378387
 C         -3.4588670982        1.6907544916        0.0565572204
 C         -4.7024779576        1.0983794708        0.0521227201
 C         -4.8253988784       -0.2924085306       -0.0074541501
 C         -3.6693728088       -1.0769413618       -0.0545158128
 C         -2.4241637855       -0.4904387744       -0.0330041169
 C         -6.1523052338       -0.9219427407       -0.0201854984
 N         -7.1258816420       -0.3893501718        0.6829428949
 N         -6.3426454746       -2.0091593244       -0.7324059120
 H          1.5397492225       -1.1283503237        0.1878090231
 H          3.7556417897       -2.1797790391        0.1880818079
 H          5.5715946718        1.6939016308       -0.1899181402
 H          3.3424608698        2.7231871597       -0.1712639504
 H          7.2261049949       -2.5547155840       -0.6260792739
 H          5.5704010859       -2.5243842078       -1.1265476085
 H          8.0809699120       -0.7403571933        0.6075124920
 H         -3.3719020210        2.7653712732        0.0893759597
 H         -5.5790867417        1.7259428431        0.0543795359
 H         -3.7395075976       -2.1525904374       -0.0662878905
 H         -1.5291595815       -1.0886754869       -0.0560904292
 H         -8.0522051322       -0.7911500300        0.6834092969
 H         -6.9588662064        0.4133798712        1.2687232270
 H         -7.2398339642       -2.4719791287       -0.7515166239
 H          7.0015542123        0.5137568368        1.1110338028
 H         -5.6063148913       -2.3797628929       -1.3121287949
 H         -1.0248716487        2.5310972406        0.0889190424
  38
        -58.43314049
 C          2.3009778522        0.6180553489        0.0964129589
 C          2.9809531721        0.1854196733        1.2439042555
 C          4.2795966507       -0.2561320647        1.1598888295
 C          4.9584962037       -0.2589546355       -0.0638377994
 C          4.2843756534        0.1908881844       -1.2050527588
 C          2.9798758743        0.6156772157       -1.1308107621
 C          6.3421421610       -0.7226558611       -0.1487922602
 N          6.7622963234       -1.6750873378        0.6570983953
 N          7.1564901381       -0.1852192537       -1.0327948242
 N          1.0736583734        1.2023780368        0.2006349594
 N         -0.0235370489        0.5994375124        0.1094825109
 N         -1.0924118513        1.3437055062        0.2429529046
 C         -2.3609273638        0.8051531113        0.1549797905
 C         -2.5484547944       -0.5596102995       -0.0731076360
 C         -3.8230801362       -1.0722147102       -0.1687422608
 C         -4.9367329223       -0.2406653440       -0.0220906339
 C         -4.7421298033        1.1220637136        0.2164645316
 C         -3.4687006443        1.6426792697        0.2959366376
 C         -6.2946944770       -0.7925120213       -0.1194021072
 N         -6.5348061637       -1.7644462614       -0.9696532460
 N         -7.2454154790       -0.3057524343        0.6453586819
 H          2.4697496976        0.1996553475        2.1935318799
 H          4.7799395788       -0.5636534847        2.0644826013
 H          4.7647346474        0.1636079233       -2.1703145423
 H          2.4612020320        0.9447403749       -2.0173750407
 H          7.7179963550       -1.9978891220        0.6305571924
 H          6.1259168506       -2.1268507702        1.2936103169
 H          8.1112535578       -0.4992984126       -1.1224618902
 H         -1.6867323969       -1.1976463164       -0.1729298710
 H         -3.9485142410       -2.1323557378       -0.3184123488
 H         -5.5846876503        1.7894063677        0.3000126140
 H         -3.3271584633        2.6983001924        0.4662192894
 H         -7.4544163734       -2.1733066301       -1.0515125458
 H         -5.8125593569       -2.0959898585       -1.5895684610
 H         -8.1914239745       -0.6546137416        0.5912825187
 H          6.8538571213        0.5831767627       -1.6091155244
 H         -7.0420756484        0.4032971919        1.3319479703
 H         -0.9993824714        2.3481693593        0.4123807353
