  27
        -70.70905451
 C         -1.4105549872        4.2705459442        0.2054743439
 C          0.0318567578        3.8917602679        0.0872370415
 C          1.0281082960        4.8642701439       -0.0182294311
 C          2.3469852492        4.4610320616       -0.1261321124
 C          2.6353277729        3.1065383318       -0.1258627274
 C          1.5776193631        2.2064499296       -0.0188404542
 N          0.3092946023        2.5976805209        0.0846446124
 C          1.8263912576        0.7551114720       -0.0132308001
 N          0.7392623132       -0.0238715194        0.0002002261
 C          0.8868593477       -1.3357048305        0.0122610096
 N         -0.2055852815       -2.1267617425        0.0212154330
 C         -1.5623254951       -1.7905073625        0.0098726767
 C         -2.4608037772       -2.8832355120        0.0189981075
 C         -3.8220168581       -2.7151373461        0.0064189273
 C         -4.2990753969       -1.4060025555       -0.0180295929
 N         -5.5519809141       -0.8869911703       -0.0389025073
 N         -5.5306730423        0.4549409853       -0.0619880168
 C         -4.2734932042        0.8260074316       -0.0555698628
 C         -3.4115917399       -0.3011479173       -0.0273862187
 C         -2.0283249373       -0.4896615863       -0.0112668405
 C          2.2035940652       -1.9249074044        0.0147101316
 C          2.4930453772       -3.2974564658        0.0339910829
 C          3.7934588886       -3.7358051854        0.0304275366
 C          4.8513569179       -2.8205308052        0.0073249870
 C          4.6024546339       -1.4744514962       -0.0108604299
 C          3.2777018106       -0.9970852563       -0.0068245902
 N          3.0732327934        0.3425179317       -0.0218571514
  27
        -70.70891813
 C         -0.9561070477        4.6436178585        0.0262946966
 C          0.4518375962        4.1381081195        0.0195129182
 C          1.5357393097        5.0183897652        0.0198500138
 C          2.8180565804        4.4995985403        0.0136480057
 C          2.9843198078        3.1246807008        0.0075996503
 C          1.8458323602        2.3221343896        0.0083630070
 N          0.6128688339        2.8245637224        0.0140231817
 C          1.9632147490        0.8545017468        0.0031769484
 N          0.8096418400        0.1776298143        0.0051632032
 C          0.8348959368       -1.1419694582        0.0023322731
 N         -0.3243016473       -1.8325321786        0.0029461766
 C         -1.6512449570       -1.3939870301        0.0005470869
 C         -1.9985364598       -0.0254037825        0.0074466044
 C         -3.3099233394        0.3806570874        0.0038843877
 C         -4.2984948632       -0.6013361990       -0.0067723211
 N         -5.6540217928       -0.5424904756       -0.0130445318
 N         -6.2037157907       -1.7661612745       -0.0230452252
 C         -5.2225972625       -2.6360628756       -0.0228762240
 C         -3.9655243673       -1.9785506660       -0.0128686797
 C         -2.6286946923       -2.3745662294       -0.0089858236
 C          2.0925909038       -1.8489636998       -0.0017803236
 C          2.2557599020       -3.2423483521       -0.0030707339
 C          3.5106822064       -3.7976166683       -0.0089990551
 C          4.6479394803       -2.9827084100       -0.0139590028
 C          4.5229965677       -1.6194659958       -0.0122464095
 C          3.2473671580       -1.0230767884       -0.0056245376
 N          3.1669149521        0.3296055361       -0.0029606554
  27
        -70.70876471
 C         -1.4459432453        4.2308386611       -0.0394954923
 C          0.0071558766        3.8747819756       -0.0172520150
 C          1.0011663005        4.8522455669        0.0192387834
 C          2.3285618727        4.4581490184        0.0434709646
 C          2.6264742551        3.1071997513        0.0324788712
 C          1.5691289860        2.1995045918       -0.0020021148
 N          0.2958834462        2.5812809916       -0.0276560444
 C          1.8258605592        0.7493967852       -0.0069690215
 N          0.7417518896       -0.0327523383       -0.0098093986
 C          0.8909986173       -1.3443348141       -0.0102360153
 N         -0.2022717825       -2.1343029780       -0.0136871266
 C         -1.5576494267       -1.7904049832       -0.0074459275
 C         -2.4636877005       -2.8764196372        0.0170606325
 C         -3.8239574328       -2.6985976787        0.0286963951
 C         -4.2925647392       -1.3862841833        0.0149860299
 N         -5.5413752688       -0.8565876318        0.0219442385
 N         -5.5091315898        0.4856200460        0.0036993958
 C         -4.2491571161        0.8462017790       -0.0170007631
 C         -3.3969707144       -0.2885661482       -0.0115013686
 C         -2.0154660265       -0.4864903995       -0.0235277674
 C          2.2091092826       -1.9301063224       -0.0048996988
 C          2.5021839398       -3.3019150549        0.0016603561
 C          3.8038547275       -3.7365905118        0.0081063989
 C          4.8593876977       -2.8182963819        0.0073753252
 C          4.6068947305       -1.4728583864        0.0010177262
 C          3.2808840233       -0.9989928996       -0.0042696643
 N          3.0739408584        0.3404126512       -0.0062575436
  27
        -70.70722540
 C          2.9237985227        5.3277550451        0.8781038619
 C          1.8825859412        4.4031620879        0.3312050326
 C          0.6878567327        4.8993803545       -0.1943457605
 C         -0.2458132550        4.0071553116       -0.6879027262
 C          0.0353252830        2.6517886037       -0.6416171716
 C          1.2516890472        2.2454009926       -0.0966095467
 N          2.1490420953        3.1067961409        0.3754947614
 C          1.5867447113        0.8107999992       -0.0294996909
 N          0.5333789013       -0.0246861387       -0.0548660878
 C          0.7513346938       -1.3270623318       -0.0038657627
 N         -0.2931767930       -2.1833456567       -0.0388774768
 C         -1.6659811618       -1.9312135437       -0.0891357649
 C         -2.4910806649       -3.0484914975       -0.3572473940
 C         -3.8574721660       -2.9514893416       -0.4265970106
 C         -4.4175361979       -1.6919203531       -0.2197563970
 N         -5.6982095796       -1.2454837753       -0.2173553425
 N         -5.7630300147        0.0698497213        0.0385881724
 C         -4.5350367823        0.4973880556        0.2066536935
 C         -3.6056571363       -0.5643696635        0.0581889822
 C         -2.2168824601       -0.6841651203        0.1288591487
 C          2.0935841899       -1.8455757684        0.0766023854
 C          2.4509513402       -3.2010922416        0.1457528906
 C          3.7704899958       -3.5696191682        0.2188455380
 C          4.7803808673       -2.6007500872        0.2255530030
 C          4.4644893451       -1.2702646546        0.1627180826
 C          3.1183044752       -0.8638055817        0.0899480647
 N          2.8454592183        0.4617039231        0.0355176098
  27
        -70.70682247
 C          3.4982343046        5.2881028851       -0.8800080274
 C          2.3509292884        4.4741083980       -0.3707936639
 C          1.1845212073        5.0882874631        0.0896481005
 C          0.1494293237        4.2954754951        0.5493967139
 C          0.3046252545        2.9192344240        0.5360570317
 C          1.5028418246        2.3924561550        0.0581436224
 N          2.4974873111        3.1581470873       -0.3828147872
 C          1.7076585408        0.9323951497        0.0326209353
 N          0.5822827321        0.1961664787        0.0238910122
 C          0.6816518883       -1.1214132233        0.0084377831
 N         -0.4353431925       -1.8820532978        0.0089658818
 C         -1.7861252668       -1.5272020015       -0.0100389852
 C         -2.2144045834       -0.2155041014       -0.3030528298
 C         -3.5450359117        0.1207060244       -0.3335866327
 C         -4.4736688928       -0.8837553179       -0.0689199552
 N         -5.8294076765       -0.8928166442       -0.0198861912
 N         -6.3064743392       -2.1120507624        0.2706222537
 C         -5.2779323768       -2.9121237251        0.4139187393
 C         -4.0613240461       -2.2097562797        0.2146642803
 C         -2.7049731080       -2.5314658309        0.2415432489
 C          1.9737200631       -1.7604881778        0.0027362918
 C          2.2092097945       -3.1439294018       -0.0229143467
 C          3.4916337227       -3.6315294613       -0.0237572453
 C          4.5849363755       -2.7581757713        0.0005295992
 C          4.3889470892       -1.4035776065        0.0215658699
 C          3.0834703372       -0.8758995796        0.0203257272
 N          2.9307163988        0.4696151911        0.0356530735
  27
        -70.70498312
 C          1.0301778083        6.0353887198       -1.4231379047
 C          1.9405464900        5.0608634899       -0.7446562869
 C          3.1624833234        5.4743768110       -0.2102392851
 C          3.9729490667        4.5385752424        0.4064475486
 C          3.5444349330        3.2237167026        0.4724699062
 C          2.3091497026        2.9002147482       -0.0862530699
 N          1.5316367332        3.8032916627       -0.6794899556
 C          1.8210371169        1.5112267342       -0.0379158321
 N          0.6006938379        1.2761784613       -0.5340635087
 C          0.1269463669        0.0395367368       -0.5099130039
 N         -1.1387793929       -0.0831375153       -0.9762094864
 C         -2.1212078329       -1.0232106486       -0.6287264995
 C         -3.1349108264       -1.2735813797       -1.5791490847
 C         -4.1577133087       -2.1556363572       -1.3366661703
 C         -4.1623998581       -2.8036049765       -0.1022044922
 N         -5.0013266242       -3.7139043161        0.4512920834
 N         -4.6149504402       -4.0555442364        1.6887813990
 C         -3.5260244181       -3.3786435695        1.9617286532
 C         -3.1611998124       -2.5504082346        0.8693512039
 C         -2.1369169824       -1.6398932461        0.6068544710
 C          0.9571610598       -1.0560342726       -0.0983705822
 C          0.6698482818       -2.4204126175       -0.2624187173
 C          1.5482464259       -3.3712593946        0.1889383824
 C          2.7423151193       -2.9966571121        0.8180718655
 C          3.0737520427       -1.6752263631        0.9473079805
 C          2.2051341366       -0.6764505548        0.4644755690
 N          2.6075764144        0.6141928018        0.5158525837
  27
        -70.70479366
 C          1.0546548276        6.1397521254       -0.4357378964
 C          2.0383182670        5.0727646065       -0.0712592546
 C          3.3387547991        5.4000401227        0.3178655321
 C          4.2153115833        4.3808339706        0.6430670072
 C          3.7727149356        3.0709598101        0.5715290611
 C          2.4571149036        2.8363835112        0.1754262401
 N          1.6160623847        3.8196291923       -0.1372514728
 C          1.9514755273        1.4556089119        0.0852207760
 N          0.6536736725        1.2985251399       -0.1998314781
 C          0.1626599330        0.0712283287       -0.2890788263
 N         -1.1712088789        0.0157404000       -0.5096062822
 C         -2.0817464201       -0.9990921938       -0.1755380985
 C         -1.8655093578       -1.8007388513        0.9672175051
 C         -2.7474331202       -2.7829681383        1.3410392775
 C         -3.8854920359       -2.9554187826        0.5542507356
 N         -4.9359525795       -3.8085236184        0.6392550431
 N         -5.8231649971       -3.6008178120       -0.3440509584
 C         -5.3707322750       -2.6154409577       -1.0805629152
 C         -4.1316773942       -2.1398813123       -0.5791715376
 C         -3.2189416079       -1.1491042475       -0.9441205619
 C          1.0283920635       -1.0717933697       -0.2305063395
 C          0.6797739439       -2.3916239334       -0.5579100499
 C          1.6036662640       -3.3985102357       -0.4465234285
 C          2.9048617071       -3.1255730962       -0.0060816026
 C          3.2887493514       -1.8417643355        0.2723532770
 C          2.3699298821       -0.7824469508        0.1365458048
 N          2.8065297685        0.4845505041        0.3223034724
  27
        -70.70422782
 C          0.7364484048        4.9031271369       -2.1868280016
 C          0.9615866379        4.2010976673       -0.8854016018
 C          0.9020085833        4.8924686921        0.3233770900
 C          1.1169890329        4.2012134268        1.5010851554
 C          1.3874612541        2.8432975100        1.4395516007
 C          1.4277919194        2.2379382740        0.1893940919
 N          1.2180893652        2.8988960026       -0.9420189502
 C          1.7111041271        0.7813149604        0.0841638900
 N          0.6335283290       -0.0110006384        0.0537925709
 C          0.8127551080       -1.3207798568       -0.0342448312
 N         -0.2548604615       -2.1444878284       -0.0477439705
 C         -1.6213182071       -1.8649543685        0.0298205813
 C         -2.4795189159       -2.9896339900        0.0056972165
 C         -3.8440307165       -2.8734274360        0.0799610298
 C         -4.3679030822       -1.5857583518        0.1821661388
 N         -5.6364198596       -1.1152557558        0.2745175808
 N         -5.6626840369        0.2240246717        0.3543551391
 C         -4.4211029091        0.6431626653        0.3152324860
 C         -3.5219702371       -0.4491633454        0.2056517982
 C         -2.1351139883       -0.5868540397        0.1285616818
 C          2.1416880265       -1.8748769037       -0.1038931212
 C          2.4600915996       -3.2377227938       -0.2185034624
 C          3.7690544680       -3.6463275259       -0.2570106086
 C          4.8078241606       -2.7120145268       -0.1833611444
 C          4.5305475147       -1.3754186952       -0.0757034070
 C          3.1966804344       -0.9297385147       -0.0370141501
 N          2.9615422319        0.4050224715        0.0632579135
  27
        -70.70373922
 C          5.0384914949        4.8830707715       -0.4842570082
 C          3.6659826545        4.5748855016        0.0252880649
 C          2.8784508345        5.5691138173        0.6103462089
 C          1.6168664000        5.2372044534        1.0682894722
 C          1.1776078401        3.9311740630        0.9298820826
 C          2.0298799594        3.0037759132        0.3332374447
 N          3.2446036657        3.3271120883       -0.1047916941
 C          1.6033700380        1.6031926082        0.1685698833
 N          0.4308788653        1.2747273901        0.7414516837
 C         -0.0061597354        0.0296911035        0.6284777919
 N         -1.2218189841       -0.1970829313        1.1861575049
 C         -2.2019335036       -1.1259453713        0.8004181874
 C         -3.1229545724       -1.5364111940        1.7883471548
 C         -4.1341583047       -2.4233644433        1.5161944201
 C         -4.2222270234       -2.9103604713        0.2128894792
 N         -5.0752126768       -3.7786516039       -0.3848417746
 N         -4.7836532130       -3.9450285279       -1.6827116252
 C         -3.7437707552       -3.1937554560       -1.9519973936
 C         -3.3151540245       -2.4944992472       -0.7945347283
 C         -2.3021293284       -1.5816017264       -0.4992945855
 C          0.8133704088       -0.9851648848        0.0332106660
 C          0.5765012743       -2.3685868366        0.0738078113
 C          1.4364309466       -3.2344644988       -0.5504848176
 C          2.5603025137       -2.7536835978       -1.2349840283
 C          2.8448676154       -1.4151499087       -1.2491363150
 C          1.9964275521       -0.5041559370       -0.5894396648
 N          2.3580161118        0.7976892677       -0.5362907928
  27
        -70.70370942
 C          4.6728747023        5.0833901753       -1.0289983415
 C          3.5104753282        4.6551249790       -0.1900512101
 C          2.9080962567        5.5413828414        0.7058333918
 C          1.8354122534        5.1018183563        1.4592191333
 C          1.3954259231        3.7986121702        1.2987844938
 C          2.0571590972        2.9823420270        0.3832470459
 N          3.0898635924        3.4092589381       -0.3398846787
 C          1.6262689155        1.5865508023        0.1908751624
 N          0.4706390286        1.2422985816        0.7877856810
 C          0.0287808843        0.0011357027        0.6513226424
 N         -1.1748803350       -0.2375569266        1.2297745935
 C         -2.1687581190       -1.1511953817        0.8433813910
 C         -3.0813297266       -1.5641021034        1.8383077869
 C         -4.1066173191       -2.4353450304        1.5686835903
 C         -4.2175526433       -2.9048243547        0.2607058249
 N         -5.0882807234       -3.7556191056       -0.3365128893
 N         -4.8151854009       -3.9093788155       -1.6399963253
 C         -3.7703440057       -3.1666433648       -1.9134992478
 C         -3.3187868084       -2.4869044983       -0.7531598273
 C         -2.2916000546       -1.5890852819       -0.4603943677
 C          0.8338609151       -0.9981914813        0.0119687494
 C          0.5985134259       -2.3824161350        0.0257356788
 C          1.4447220956       -3.2327840380       -0.6374372887
 C          2.5525046492       -2.7351038126       -1.3359569259
 C          2.8360864101       -1.3963344664       -1.3254845743
 C          2.0022090627       -0.5015380764       -0.6261331514
 N          2.3640575133        0.7991620409       -0.5513174084
  27
        -70.70364087
 C          5.3592620931        4.6726853769        0.4648385016
 C          3.8876197938        4.4682965061        0.2888329510
 C          3.0219379539        5.5579835981        0.1705882593
 C          1.6697256081        5.3208300437        0.0069970534
 C          1.2208926523        4.0113838486       -0.0332208374
 C          2.1552392541        2.9850601457        0.0931425801
 N          3.4565496404        3.2175849818        0.2493830824
 C          1.7199408360        1.5779693796        0.0520636484
 N          0.4338037675        1.3718985999       -0.2846659264
 C         -0.0175371547        0.1277182009       -0.3423365876
 N         -1.3377477408        0.0170633732       -0.6268550312
 C         -2.2319583442       -1.0072961246       -0.2758951109
 C         -2.0450309655       -1.7356412808        0.9197185501
 C         -2.9136741204       -2.7235506277        1.3092775630
 C         -4.0083454376       -2.9766583754        0.4836543796
 N         -5.0357282726       -3.8572136570        0.5704298421
 N         -5.8818846196       -3.7339195202       -0.4618612136
 C         -5.4253917204       -2.7772759821       -1.2329650151
 C         -4.2258248002       -2.2345265875       -0.7047424104
 C         -3.3268596957       -1.2369015723       -1.0849256164
 C          0.8740751223       -0.9848176075       -0.1886398691
 C          0.5754473975       -2.3278115429       -0.4687896628
 C          1.5190131149       -3.3012653007       -0.2651431675
 C          2.7896952739       -2.9711720623        0.2234965857
 C          3.1264795287       -1.6654533363        0.4578272274
 C          2.1884492752       -0.6401107921        0.2267285367
 N          2.5828184715        0.6454343736        0.3703280456
  27
        -70.70361142
 C          5.0677316429        4.7707010944       -1.2495897009
 C          3.7602259997        4.5096365982       -0.5708429872
 C          3.0353488437        5.5506669850        0.0135043266
 C          1.8293026741        5.2625170328        0.6251050631
 C          1.3818442140        3.9520224211        0.6361368498
 C          2.1713876852        2.9760210570        0.0310028884
 N          3.3321510671        3.2572487143       -0.5562272381
 C          1.7347652864        1.5685889288        0.0300004184
 N          0.4574310621        1.3520186620        0.3923280870
 C          0.0029677938        0.1075823269        0.4050397038
 N         -1.3127120365       -0.0132736842        0.7060503067
 C         -2.2141057907       -1.0174161770        0.3167858705
 C         -2.0401713704       -1.6914498799       -0.9122018104
 C         -2.9157981700       -2.6575750885       -1.3388593085
 C         -4.0045677402       -2.9440940348       -0.5164032841
 N         -5.0364991928       -3.8156093351       -0.6346536261
 N         -5.8738464205       -3.7358640925        0.4090223093
 C         -5.4068189734       -2.8172305274        1.2190676326
 C         -4.2092270041       -2.2557667683        0.7061487078
 C         -3.3031633220       -1.2797074202        1.1237366180
 C          0.8883282029       -0.9997514236        0.1897586179
 C          0.5907159374       -2.3519591218        0.4228346916
 C          1.5287078552       -3.3185865510        0.1675514556
 C          2.7923424127       -2.9723778163       -0.3282123253
 C          3.1284830997       -1.6592986684       -0.5180712980
 C          2.1962414364       -0.6418712102       -0.2344923551
 N          2.5897291252        0.6477339992       -0.3391114755
  27
        -70.70143259
 C          3.9196622165        5.1121114562       -2.3359880179
 C          3.1751065667        4.6862388907       -1.1106667268
 C          2.9359917432        5.5799896806       -0.0682631553
 C          2.2455410053        5.1396569959        1.0453915904
 C          1.8153140180        3.8227972444        1.0881636109
 C          2.0994216147        3.0037231831        0.0023789316
 N          2.7597156279        3.4251437422       -1.0687646892
 C          1.6570280102        1.5835794691        0.0082391643
 N          0.4309310735        1.3511024184       -0.4738697227
 C         -0.0166539395        0.1001031621       -0.4814294405
 N         -1.2909155661       -0.0376995810       -0.9165202920
 C         -2.2421237170       -1.0104969975       -0.5692720758
 C         -3.2822170098       -1.2496933850       -1.4934081409
 C         -4.2798553419       -2.1589113994       -1.2461957245
 C         -4.2306308451       -2.8466988300       -0.0345343308
 N         -5.0329592194       -3.7908406285        0.5161608214
 N         -4.5980722555       -4.1650041118        1.7277020522
 C         -3.5133345095       -3.4762296349        1.9866012431
 C         -3.2017878434       -2.6054935940        0.9109328873
 C         -2.2044935101       -1.6666051998        0.6451631848
 C          0.8462764693       -0.9866339422       -0.1222898255
 C          0.5847020229       -2.3510039539       -0.3319138115
 C          1.4885655878       -3.2976920533        0.0740176354
 C          2.6822365596       -2.9197477323        0.7017876508
 C          2.9879012198       -1.5965100197        0.8738442648
 C          2.0929619416       -0.6017911686        0.4370058461
 N          2.4684067833        0.6995845224        0.5278447878
