  34
        -65.27667754
 C          2.8641002223       -0.5234302409       -0.0685662884
 C          3.8102392176       -1.5337431270       -0.0704184941
 Cl         3.2571472268       -3.1847699953       -0.1155798969
 C          5.1669363288       -1.2686748255       -0.0395094149
 C          5.5781249222        0.0554278960       -0.0076497302
 C          4.6551961531        1.0807304302       -0.0048823450
 C          3.2849745856        0.8032435014       -0.0332396123
 N          2.4210709584        1.8898407167       -0.0279202631
 C          1.0847157682        1.9876058181       -0.0062764399
 S         -0.0453379869        0.6434257673        0.0502537862
 N          0.5248581738        3.1678127583       -0.0107996333
 C         -0.8234979183        3.1019371563        0.0259564135
 N         -1.5608626739        4.2074438944        0.0248901424
 C         -1.3660559919        1.7993158723        0.0763765388
 C         -2.7395011310        1.4827777842        0.0467786722
 O         -3.6152549681        2.3707378703       -0.0269449006
 C         -3.1368506696        0.0456206448        0.0626814267
 C         -2.5685508937       -0.8697746672        0.9434401038
 C         -2.9721246059       -2.1927574537        0.9327300699
 C         -3.9450076813       -2.5785808246        0.0310962878
 F         -4.3386981631       -3.8841532212        0.0107480145
 C         -4.5428536217       -1.6906570392       -0.8427875973
 C         -4.1366794180       -0.3701228861       -0.8124002242
 H          1.8212127312       -0.7845375320       -0.0986195505
 H          5.8804651856       -2.0750809716       -0.0413105227
 H          6.6315932684        0.2823027949        0.0153140705
 H          4.9915139735        2.1048544839        0.0201477379
 H          2.8772442460        2.7974208614       -0.0318022836
 H         -2.5655188645        4.0912266007        0.0082970826
 H         -1.1134201042        5.1043603712       -0.0448536108
 H         -1.8276967231       -0.5503026480        1.6596724425
 H         -2.5468171049       -2.9156146142        1.6093147309
 H         -5.3070499365       -2.0312547709       -1.5218693983
 H         -4.5875427734        0.3568811314       -1.4704956216
  34
        -65.27638100
 C          3.7631519090        0.8006732252       -0.0459239378
 C          5.1122342995        1.1023175443       -0.0718679712
 Cl         5.5936316222        2.7749325393       -0.0952232405
 C          6.0835656442        0.1162591719       -0.0797427447
 C          5.6800771041       -1.2097557458       -0.0609231774
 C          4.3393835550       -1.5397479430       -0.0349613780
 C          3.3713237353       -0.5347705991       -0.0272222284
 N          2.0337445405       -0.9196963410       -0.0006379918
 C          0.9358588444       -0.1550017925        0.0143817980
 S         -0.6347948582       -0.9664388143        0.0674889454
 N          0.8781043683        1.1422464955        0.0009313968
 C         -0.3949921962        1.6001089884        0.0270392493
 N         -0.6460180282        2.9044393283        0.0156967259
 C         -1.4018846566        0.6111348788        0.0768258009
 C         -2.7893238655        0.8639243027        0.0349884856
 O         -3.2383707779        2.0269170443       -0.0487902427
 C         -3.7292914997       -0.2924637723        0.0524844670
 C         -4.8183923680       -0.2643819719       -0.8147187098
 C         -5.7270673736       -1.3050186825       -0.8396670319
 C         -5.5364839350       -2.3598889513        0.0324719324
 F         -6.4288175989       -3.3907081217        0.0192592009
 C         -4.4833583706       -2.4049693506        0.9253878392
 C         -3.5754346616       -1.3614595310        0.9300780377
 H          3.0183104689        1.5766407338       -0.0402031928
 H          7.1277610113        0.3796089262       -0.0996219086
 H          6.4240137111       -1.9898495577       -0.0660460072
 H          4.0398700236       -2.5755859072       -0.0205221185
 H          1.8684090193       -1.9192641498        0.0109496168
 H         -1.6183764626        3.1846611260       -0.0090951650
 H          0.1123919898        3.5597333442       -0.0539085507
 H         -4.9391027158        0.5841973614       -1.4706785693
 H         -6.5688201983       -1.3039675721       -1.5124365403
 H         -4.3846381151       -3.2387616359        1.6006725880
 H         -2.7627153009       -1.3725428514        1.6391967127
  34
        -65.27633179
 C          4.2091988114       -0.9827163141       -0.0672205300
 C          5.5456196966       -0.6342745132       -0.0926568449
 Cl         6.7443934720       -1.8981984771       -0.1402124226
 C          5.9498973108        0.6899189063       -0.0813878159
 C          4.9789751851        1.6777329381       -0.0437351305
 C          3.6343553855        1.3580334881       -0.0182037803
 C          3.2417497114        0.0223443163       -0.0299367769
 N          1.9082865165       -0.3770622797       -0.0050343292
 C          0.8038836744        0.3784623483        0.0221808656
 S         -0.7597629295       -0.4475329482        0.0666017560
 N          0.7359723454        1.6748328923        0.0251231510
 C         -0.5409492330        2.1224448864        0.0569659045
 N         -0.8018935379        3.4243820534        0.0602366536
 C         -1.5395323409        1.1244190164        0.0953192354
 C         -2.9290666426        1.3646597693        0.0575976873
 O         -3.3901295057        2.5236384094       -0.0123513444
 C         -3.8563000626        0.1975774177        0.0617805668
 C         -4.9390796059        0.2168276393       -0.8133069218
 C         -5.8343297057       -0.8351223533       -0.8506939402
 C         -5.6367724192       -1.8922215959        0.0170941256
 F         -6.5155832521       -2.9346771577       -0.0086092065
 C         -4.5899274327       -1.9289058197        0.9177207072
 C         -3.6953087167       -0.8740905369        0.9347381710
 H          3.9240071480       -2.0223028445       -0.0766256768
 H          6.9975058333        0.9394903406       -0.1016639324
 H          5.2792852738        2.7129090463       -0.0342110617
 H          2.8808417093        2.1251687752        0.0108194169
 H          1.7513302908       -1.3777540832       -0.0091988751
 H         -1.7762036741        3.6977045340        0.0409193014
 H         -0.0483513760        4.0865418529        0.0009822822
 H         -5.0659199373        1.0674149467       -1.4654594566
 H         -6.6709304290       -0.8412049529       -1.5298348743
 H         -4.4859354057       -2.7652239137        1.5891276808
 H         -2.8873614459       -0.8787212561        1.6494422927
  34
        -65.27614381
 C          4.2993926804        0.4161167774        0.0195612173
 C          5.1409629435       -0.6772108539        0.0504613675
 Cl         6.8625187394       -0.4169025313        0.0327914482
 C          4.6466029066       -1.9704953941        0.0952484771
 C          3.2741381847       -2.1492635003        0.1103717631
 C          2.4085797645       -1.0704739032        0.0805870372
 C          2.9140537279        0.2264242625        0.0332476947
 N          2.1333331234        1.3739157831        0.0001398494
 C          0.8071770541        1.5677659437       -0.0272086778
 S         -0.4165408987        0.3093715559       -0.0489140793
 N          0.3347120417        2.7853819442       -0.0535795679
 C         -1.0151226627        2.8161173145       -0.0885624032
 N         -1.6707041175        3.9719520853       -0.1174211465
 C         -1.6507255299        1.5556031192       -0.1043057492
 C         -3.0442604298        1.3429159586       -0.0645018188
 O         -3.8500412412        2.2964922154       -0.0127817030
 C         -3.5514312597       -0.0587362142       -0.0435719752
 C         -3.0528141157       -1.0405438161       -0.8945201825
 C         -3.5634285142       -2.3254297416       -0.8534817068
 C         -4.5716099695       -2.6066236090        0.0481115770
 F         -5.0722471726       -3.8740343250        0.0969675263
 C         -5.1003914685       -1.6504641083        0.8941206753
 C         -4.5875592654       -0.3687382665        0.8333502192
 H          4.7144355329        1.4103055526       -0.0152605558
 H          5.3181968068       -2.8120324942        0.1185352231
 H          2.8706477498       -3.1480544501        0.1468632526
 H          1.3479137620       -1.2494085108        0.0975178106
 H          2.6534749191        2.2458807641       -0.0133523251
 H         -2.6811609046        3.9280711499       -0.0957627325
 H         -1.1602252853        4.8359118586       -0.0695907234
 H         -2.2833052719       -0.8013941621       -1.6116276392
 H         -3.1944128650       -3.0979203558       -1.5077245382
 H         -5.8946932465       -1.9093611572        1.5747343467
 H         -4.9822887497        0.4098170177        1.4681677490
  34
        -65.27594632
 C          4.2626522056        0.3744663116        0.2145644645
 C          5.0775454070       -0.7380323209        0.1543733248
 Cl         6.7559028803       -0.5784980479        0.5895023759
 C          4.5897555321       -1.9723829875       -0.2423647641
 C          3.2530146715       -2.0720533936       -0.5878686261
 C          2.4143908881       -0.9732115584       -0.5339898108
 C          2.9114156621        0.2613556921       -0.1240699928
 N          2.1487492895        1.4204900931       -0.0474401151
 C          0.8226295488        1.6149759953       -0.0445925790
 S         -0.3900963053        0.3455047903       -0.0847152614
 N          0.3418276686        2.8259182733        0.0392518232
 C         -1.0086534639        2.8437828134        0.0753558805
 N         -1.6733783263        3.9918630439        0.1540714436
 C         -1.6333988231        1.5783381005        0.0395270695
 C         -3.0255750265        1.3536672742        0.0219668643
 O         -3.8409693833        2.3003812045        0.0108330240
 C         -3.5206241539       -0.0521131395       -0.0115157552
 C         -2.9892254846       -1.0415399552        0.8104897467
 C         -3.4911430123       -2.3297117110        0.7678739180
 C         -4.5247446064       -2.6065288748       -0.1057664035
 F         -5.0182513217       -3.8767185830       -0.1553798114
 C         -5.0860508424       -1.6432614912       -0.9223094755
 C         -4.5808531534       -0.3584862319       -0.8604316326
 H          4.6705080671        1.3220894152        0.5266872954
 H          5.2406188571       -2.8294399401       -0.2835419417
 H          2.8582588296       -3.0221637533       -0.9091240728
 H          1.3847293777       -1.0819684574       -0.8274461717
 H          2.6740933589        2.2777373897        0.0917848715
 H         -2.6835746990        3.9411413381        0.1451751910
 H         -1.1692630902        4.8607290223        0.1636670116
 H         -2.2000995951       -0.8064797342        1.5072824508
 H         -3.0961640050       -3.1076104028        1.4001733268
 H         -5.8994666061       -1.8993502539       -1.5810564372
 H         -5.0008415608        0.4252207725       -1.4722387675
  34
        -65.27473446
 C          2.7513827599       -0.5600714833        0.0687913566
 C          3.6708381561       -1.5947850410        0.0737314829
 Cl         3.0757080603       -3.2291793353        0.1710185951
 C          5.0328144659       -1.3660610018        0.0048407536
 C          5.4770170270       -0.0544268591       -0.0691514209
 C          4.5809790321        0.9944876928       -0.0755393579
 C          3.2052515190        0.7537844789       -0.0085594321
 N          2.3696135305        1.8624716086       -0.0186071549
 C          1.0368090192        1.9962374925       -0.0141867740
 S         -0.1321748916        0.6809100051       -0.0065044050
 N          0.5120410601        3.1931019656       -0.0237687274
 C         -0.8377199011        3.1681683225       -0.0245512383
 N         -1.5489702078        4.2903229217       -0.0332112745
 C         -1.4128286537        1.8806327592       -0.0171434329
 C         -2.7825087676        1.5651011714       -0.0189409579
 O         -3.6784557524        2.4297939239       -0.0207485553
 C         -3.1018691008        0.0991367649       -0.0234613831
 C         -3.2344675570       -0.5758443313       -1.2307652019
 C         -3.5123998461       -1.9312365676       -1.2464389012
 C         -3.6523884635       -2.5863841521       -0.0387894234
 F         -3.9252491644       -3.9239157155       -0.0462802694
 C         -3.5273555512       -1.9417047395        1.1760806679
 C         -3.2496860224       -0.5860004328        1.1761105282
 H          1.7028570617       -0.7927250227        0.1284400451
 H          5.7250596901       -2.1907472141        0.0099418472
 H          6.5350469141        0.1439227658       -0.1224383193
 H          4.9429266785        2.0084363372       -0.1335315956
 H          2.8499088510        2.7574099288       -0.0433358399
 H         -2.5554387232        4.2042326393       -0.0342652082
 H         -1.0808362252        5.1794118949       -0.0428621644
 H         -3.1206800866       -0.0384221456       -2.1597002940
 H         -3.6188990751       -2.4736901798       -2.1713939953
 H         -3.6452465750       -2.4925355481        2.0947128442
 H         -3.1477577727       -0.0571072009        2.1112732611
