  26
        -76.33774670
 C          4.1873769219       -0.3487160114        0.5876389223
 C          5.5481058505       -0.6562908776        0.5354588838
 C          6.3798116765        0.1325937680       -0.2656050356
 C          5.8593139141        1.1917223909       -0.9813756623
 C          4.5110494023        1.4965642365       -0.9166399707
 C          3.6636317052        0.7187308409       -0.1296253340
 N          6.0429258186       -1.7507872177        1.1993116419
 C          2.2264826648        1.0231152962       -0.0609745092
 C          1.7873467372        2.3553239660        0.0414451185
 C          0.4536776526        2.6565521643        0.1070651241
 C         -0.5047809039        1.6315644244        0.0664521631
 C         -0.0810237799        0.2841357052       -0.0410238451
 C          1.2898377107        0.0078860167       -0.1006453063
 N         -1.8261538288        1.9662500034        0.1324279675
 C         -2.6567994101        0.9675374599        0.0863240897
 N         -2.4079267864       -0.3316407185       -0.0168261366
 C         -1.1279392642       -0.7120452815       -0.0829439842
 N         -0.8464876051       -2.0046418229       -0.1822709389
 C         -1.7957568836       -3.1184523166       -0.2413727191
 C         -2.6937921569       -2.9651833703       -1.4708444706
 C         -0.9630564448       -4.3948392197       -0.3525077830
 C         -2.6366215983       -3.1467899700        1.0367569506
 C         -4.1296652113        1.2873514321        0.1537540933
 F         -4.7896295247        0.8826529659       -0.9514418962
 F         -4.7392546462        0.6673533289        1.1848768175
 F         -4.3984028395        2.5913851226        0.2914052078
  26
        -76.33767122
 C          4.5787281957        0.9504602870        0.7677274945
 C          5.9296183004        0.6001844951        0.7258454703
 C          6.3449996638       -0.3460290219       -0.2168572451
 C          5.4318968574       -0.9214577025       -1.0768338004
 C          4.0923675781       -0.5788008445       -1.0204540280
 C          3.6585114231        0.3668849017       -0.0926179696
 N          6.8151682044        1.1218184108        1.6336791304
 C          2.2401892684        0.7495935413       -0.0249725710
 C          1.8742998668        2.0980923037        0.1361020645
 C          0.5588172506        2.4714561994        0.1959724014
 C         -0.4545514651        1.5045755015        0.1020286426
 C         -0.1051421637        0.1410370037       -0.0576351407
 C          1.2488175790       -0.2083744973       -0.1203121098
 N         -1.7558377835        1.9104642052        0.1666243316
 C         -2.6402643321        0.9625248904        0.0742214456
 N         -2.4627852085       -0.3442872349       -0.0717144696
 C         -1.2053821928       -0.7930465254       -0.1415838673
 N         -0.9959397750       -2.0947303198       -0.2894024491
 C         -2.0058819837       -3.1511524347       -0.3851288678
 C         -2.8442232499       -3.1795516464        0.8947053833
 C         -2.8966534663       -2.9034164228       -1.6044195540
 C         -1.2460031004       -4.4669798145       -0.5466541947
 C         -4.0936319959        1.3613172339        0.1432981028
 F         -4.2922392896        2.6815595095        0.2396040183
 F         -4.7862328620        0.9552456175       -0.9401779698
 F         -4.7230936209        0.8091562411        1.2016367223
  26
        -76.33763371
 C          4.5922286333        0.9129853228        0.7599484403
 C          5.9432386211        0.5712656953        0.6734999997
 C          6.3407182421       -0.3345588562       -0.3154062100
 C          5.4115705365       -0.8734883136       -1.1818574302
 C          4.0731259817       -0.5360727425       -1.0846151699
 C          3.6561722130        0.3677764530       -0.1084204928
 N          6.8673416543        1.1634400928        1.4953385079
 C          2.2386866314        0.7430843864        0.0034452705
 C          1.8752258926        2.0810999297        0.2408397834
 C          0.5607013990        2.4498481443        0.3382472784
 C         -0.4542026731        1.4890974475        0.2049960597
 C         -0.1071445497        0.1359094810       -0.0301884169
 C          1.2458834411       -0.2092030666       -0.1276997073
 N         -1.7545492682        1.8907447353        0.3041117805
 C         -2.6405001358        0.9491340760        0.1691178282
 N         -2.4651348436       -0.3471720179       -0.0519316332
 C         -1.2085795627       -0.7922488310       -0.1531669552
 N         -1.0011597290       -2.0851576318       -0.3669373302
 C         -2.0124375323       -3.1343948828       -0.5140799073
 C         -2.9013856083       -2.8262461945       -1.7208177487
 C         -1.2539467479       -4.4418364054       -0.7382476286
 C         -2.8527814192       -3.2239434529        0.7615805484
 C         -4.0922396698        1.3516690042        0.2515647430
 F         -4.2885590651        2.5748919186        0.7605896692
 F         -4.6877806695        1.3519406136       -0.9614957539
 F         -4.8174413295        0.5080410578        1.0092549984
  26
        -76.33757466
 C          4.5816581542        1.0402707045       -0.5721951869
 C          5.9327921964        0.6884397436       -0.5656943119
 C          6.3393122898       -0.3843718950        0.2345299220
 C          5.4187653071       -1.0743906163        0.9967522792
 C          4.0797354818       -0.7257374488        0.9776284463
 C          3.6542151584        0.3429206939        0.1900074291
 N          6.8488704801        1.4219008187       -1.2749510377
 C          2.2358070023        0.7303455325        0.1607475123
 C          1.8699823352        2.0883278025        0.1873521007
 C          0.5546809666        2.4663497593        0.1660127714
 C         -0.4584336118        1.4959466800        0.1108873792
 C         -0.1086922084        0.1234539305        0.0797959994
 C          1.2450835386       -0.2314336427        0.1085398545
 N         -1.7594694491        1.9062673586        0.0904236053
 C         -2.6441783720        0.9540599191        0.0427969122
 N         -2.4657599893       -0.3591816799        0.0004074824
 C         -1.2080895601       -0.8128701083        0.0165235744
 N         -0.9975976503       -2.1221423017       -0.0257695328
 C         -2.0051820549       -3.1833235727       -0.0883028368
 C         -2.8424282571       -3.0256289288       -1.3592213278
 C         -1.2418061319       -4.5066387602       -0.1206488005
 C         -2.8989288806       -3.1185267404        1.1519961346
 C         -4.0918358905        1.3778498786       -0.0038222500
 F         -4.5218077208        1.5759576707       -1.2706357564
 F         -4.9197472053        0.4600425420        0.5204502927
 F         -4.3375368333        2.5227473761        0.6507234385
  26
        -76.33740725
 C          4.1992600018       -0.3603266552       -0.5177350353
 C          5.5611145180       -0.6612087915       -0.4487248722
 C          6.3785228536        0.1302440001        0.3650266020
 C          5.8445378696        1.1883101037        1.0720315965
 C          4.4963634529        1.4887893496        0.9876679108
 C          3.6628882714        0.7086050564        0.1879737348
 N          6.0945815880       -1.6668428659       -1.2117582831
 C          2.2267295134        1.0120214481        0.0977922049
 C          1.7919307411        2.3453509776       -0.0108094665
 C          0.4602751952        2.6499676311       -0.0960504853
 C         -0.5012289349        1.6273514462       -0.0704235311
 C         -0.0823366963        0.2787755679        0.0416839384
 C          1.2869681211       -0.0007299085        0.1220090117
 N         -1.8205562159        1.9655469022       -0.1552006588
 C         -2.6544720202        0.9691064657       -0.1226595048
 N         -2.4102815117       -0.3308593488       -0.0177439007
 C         -1.1324600025       -0.7144580481        0.0664933574
 N         -0.8564008100       -2.0082720179        0.1680496209
 C         -1.8100151501       -3.1190777553        0.2120222245
 C         -2.7252283783       -2.9642638198        1.4285785220
 C         -2.6324774772       -3.1435169110       -1.0780659294
 C         -0.9832766613       -4.3984392846        0.3335722498
 C         -4.1253530893        1.2927721635       -0.2108913534
 F         -4.8023430801        0.8871897691        0.8837582417
 F         -4.3888783126        2.5977253441       -0.3494522640
 F         -4.7214272436        0.6764009092       -1.2520706941
  26
        -76.33731912
 C          4.1977225618       -0.3676351829        0.4992079203
 C          5.5601758262       -0.6642263940        0.4242502739
 C          6.3763481463        0.1462065482       -0.3718193313
 C          5.8403227032        1.2178229281       -1.0565116020
 C          4.4914009150        1.5132732510       -0.9667901917
 C          3.6591219527        0.7147162622       -0.1840934399
 N          6.0953560063       -1.6850188385        1.1656957284
 C          2.2223290401        1.0129871274       -0.0878214281
 C          1.7840438535        2.3432843727        0.0431176178
 C          0.4519564192        2.6428750453        0.1375248684
 C         -0.5070672371        1.6181580660        0.0996103106
 C         -0.0848316642        0.2729125767       -0.0378047261
 C          1.2850142251       -0.0015146672       -0.1268921499
 N         -1.8265295046        1.9503613609        0.1992583036
 C         -2.6581540316        0.9509248992        0.1608578243
 N         -2.4107652015       -0.3447710839        0.0272015200
 C         -1.1323294371       -0.7224256197       -0.0761708273
 N         -0.8532767315       -2.0127439411       -0.2089800823
 C         -1.8019937022       -3.1273288530       -0.2630202320
 C         -0.9701073866       -4.3989248177       -0.4242839729
 C         -2.6058210176       -3.1827100774        1.0377412193
 C         -2.7366649907       -2.9521145642       -1.4616421324
 C         -4.1258368579        1.2909587411        0.2492359521
 F         -4.6558573493        1.5748662072       -0.9620031881
 F         -4.8646936091        0.2838700394        0.7413605902
 F         -4.3832679128        2.3574851858        1.0219736749
  26
        -76.33331677
 C          4.1517869758       -0.3864066775        0.5125297499
 C          5.5084650331       -0.7068742719        0.4386339546
 C          6.3425162582        0.0995323743       -0.3422110364
 C          5.8280772866        1.1877581996       -1.0176024048
 C          4.4837397075        1.5045694979       -0.9318409530
 C          3.6339888148        0.7100517533       -0.1643125353
 N          5.9962203089       -1.8288363437        1.0610607373
 C          2.2011085752        1.0279530070       -0.0713601528
 C          1.7776725066        2.3601705598        0.0795039780
 C          0.4478778705        2.6702214704        0.1738074040
 C         -0.5210140360        1.6558656025        0.1156791754
 C         -0.1144043773        0.3084583549       -0.0439839983
 C          1.2531882434        0.0240575699       -0.1327635931
 N         -1.8368166534        2.0035539981        0.2186892762
 C         -2.6779277326        1.0138846337        0.1601563722
 N         -2.4456728582       -0.2828972083        0.0108155970
 C         -1.1754520788       -0.6786183361       -0.0993128299
 N         -0.8842011102       -1.9624449660       -0.2564499720
 C         -1.7050506957       -3.1737035921       -0.3308846582
 C         -1.3695403701       -3.8515109152       -1.6640182908
 C         -1.2771810021       -4.0692318650        0.8374530552
 C         -3.2009539337       -2.8993972414       -0.2526937221
 C         -4.1455102635        1.3460753632        0.2750615193
 F         -4.8460858070        0.9507023798       -0.8070523774
 F         -4.7268284433        0.7325209517        1.3263886080
 F         -4.3963858121        2.6533291902        0.4230885043
  26
        -76.33322972
 C          4.5736992236        0.7974436856        0.8073294101
 C          5.9177362895        0.4460700306        0.6673176194
 C          6.2953416506       -0.3224769842       -0.4386841027
 C          5.3527809616       -0.7263580548       -1.3622224474
 C          4.0204459085       -0.3853290770       -1.2095763191
 C          3.6238363539        0.3846567254       -0.1171214469
 N          6.8333363335        0.7886631691        1.6288581342
 C          2.2124217516        0.7597649658        0.0562313567
 C          1.8640452570        2.0606380417        0.4600874775
 C          0.5533807319        2.4225040768        0.6171432991
 C         -0.4707109364        1.4916107794        0.3814641524
 C         -0.1395790697        0.1744204729       -0.0206845252
 C          1.2097995556       -0.1622306327       -0.1777263233
 N         -1.7656395377        1.8897577913        0.5472557992
 C         -2.6606958884        0.9764717921        0.3126678049
 N         -2.5003283828       -0.2862653988       -0.0585474885
 C         -1.2534635713       -0.7287669484       -0.2360627204
 N         -1.0330995009       -1.9819270801       -0.6087077793
 C         -1.9197973317       -3.1133829355       -0.8912980636
 C         -1.6257965446       -3.5543981369       -2.3295932446
 C         -1.5392430061       -4.2282273723        0.0895103354
 C         -3.3980224012       -2.7778877121       -0.7451706712
 C         -4.1082001527        1.3665192387        0.4856718241
 F         -4.7015487561        0.6901176301        1.4918585344
 F         -4.2920856450        2.6658017667        0.7538414916
 F         -4.8449744988        1.1025674560       -0.6113650440
  26
        -76.33301966
 C          4.5702382923        0.8948198997        0.7043623864
 C          5.9173538892        0.5444349674        0.5950377050
 C          6.2966771288       -0.3414930740       -0.4186574804
 C          5.3528285162       -0.8575865489       -1.2831224843
 C          4.0178727445       -0.5143243643       -1.1613212999
 C          3.6190410012        0.3707584089       -0.1606290006
 N          6.8350771604        1.0057110585        1.5035981770
 C          2.2056851384        0.7525772158       -0.0216182736
 C          1.8521379603        2.0866702143        0.2482137236
 C          0.5408526308        2.4564645710        0.3762505507
 C         -0.4799013467        1.5018797727        0.2416204365
 C         -0.1442719429        0.1526828654       -0.0297399939
 C          1.2064631720       -0.1926585902       -0.1561664222
 N         -1.7751894065        1.9082711666        0.3757401281
 C         -2.6687370021        0.9716125323        0.2385536431
 N         -2.5042854330       -0.3176681200       -0.0151077412
 C         -1.2555475332       -0.7700880820       -0.1558746341
 N         -1.0317928801       -2.0517583446       -0.4113858932
 C         -1.9139738878       -3.2065079822       -0.5980516338
 C         -1.6456236557       -3.7438799721       -2.0084112354
 C         -1.5025923340       -4.2478988944        0.4487621953
 C         -3.3918368115       -2.8744806233       -0.4431146638
 C         -4.1074111953        1.4094557530        0.3762952901
 F         -4.4901405219        2.2394698720       -0.6173820441
 F         -4.9761019898        0.3900586700        0.3584654150
 F         -4.3421486320        2.0789965650        1.5215270739
