  15
        -49.85916922
 S          2.5023280327        0.5275742997       -0.1657271827
 O          1.2318434279        0.6928018622        0.8275934922
 O          3.3308866133       -0.5106710677        0.4438972738
 O          1.9648998227        0.1496200797       -1.4550911500
 O          3.1311695392        1.8273192441       -0.1290552852
 O          1.2861927503       -2.1260353771        0.2714847802
 O         -3.4934150343        1.8552651500        0.1896764559
 O         -4.4917918753        0.0326045556       -0.3411501917
 C         -1.0936715943        0.6507959454        0.3722756748
 N         -3.4831215450        0.6533151110       -0.0395199195
 C         -1.0144480782       -2.0780034920       -0.1332316724
 C          0.1086991521       -0.0179219444        0.4605356002
 C         -2.2161270354       -1.4190409284       -0.2101456907
 C          0.1725169953       -1.4026476581        0.1961961475
 C         -2.2574593636       -0.0470186808        0.0445593747
  15
        -49.85625461
 S          2.1615074409        0.9687593154       -0.0940926717
 O          1.7095074818       -0.5375077948        0.3442106085
 O          1.7281541338        1.8555754166        0.9679224613
 O          3.6000352735        0.8198104502       -0.1729140957
 O          1.5216082249        1.2087501928       -1.3726539139
 O          0.9085725629       -3.1048446201        0.0127753824
 O         -2.5692755490        2.0306440328        0.2495500780
 O         -4.0819283125        0.5543941665       -0.1131631146
 C         -0.5876508861        0.2035641621        0.2260122235
 N         -2.9142988223        0.8705093259        0.0663611873
 C         -1.3565078902       -2.4625662243       -0.1218591630
 C          0.3664587287       -0.7839606087        0.2067456257
 C         -2.3159952808       -1.4767776664       -0.1145901348
 C         -0.0064858629       -2.1373550712        0.0311412673
 C         -1.9321240702       -0.1463452629        0.0602251632
  15
        -49.85607693
 S          2.1441846819        1.0376717594       -0.2005207027
 O          1.7326385309       -0.5018026684        0.1397871610
 O          1.6387314192        1.3054227190       -1.5326689982
 O          1.5499126567        1.8506591323        0.8422185610
 O          3.5885737322        0.9587082677       -0.1294029369
 O          0.9731152672       -2.9968252579        0.8153026921
 O         -4.1075070043        0.3825314341       -0.2123272888
 O         -2.6101410354        1.8701020332       -0.5915705492
 C         -0.5880773022        0.1615754361       -0.0858691246
 N         -2.9374306452        0.7308352126       -0.2849249217
 C         -1.3111130560       -2.4466540507        0.6220586777
 C          0.3877075166       -0.7643814945        0.1880339517
 C         -2.2935913541       -1.5224563173        0.3496906929
 C          0.0363179925       -2.0887204242        0.5477767893
 C         -1.9320619172       -0.2221084862       -0.0033589171
  15
        -49.85340003
 S          2.2209485552        0.7528178700       -0.3262474570
 O          1.4511928719        0.3486901458        1.0583004586
 O          2.3261520715       -0.4964824102       -1.0594664442
 O          1.3902860840        1.7403683105       -0.9839711482
 O          3.4895405368        1.2597763785        0.1530106243
 O          1.2727438294       -2.3985644306        0.9538119271
 O         -3.1090739603        1.8409982126       -0.2087615820
 O         -4.1798721729        0.0428019819       -0.6755704143
 C         -0.8490042294        0.5028447079        0.3883810106
 N         -3.1713947065        0.6228496902       -0.3012099003
 C         -0.9924103828       -2.2859546639        0.3156899144
 C          0.2566122871       -0.2469830488        0.7126354397
 C         -2.1053383281       -1.5426461016        0.0023381790
 C          0.2097385076       -1.6555844959        0.6580853282
 C         -2.0343633692       -0.1483158345        0.0361759180
  15
        -49.85150309
 S          2.1552099771        0.9650875799       -0.0982528725
 O          1.7099172960       -0.5271782958        0.3722253195
 O          1.7257926719        1.8773828255        0.9468320758
 O          3.5947970036        0.8365980677       -0.1884316896
 O          1.5047346213        1.1885667115       -1.3764684248
 O          0.9512891903       -3.0773924368        0.0351523395
 O         -2.5503548363        2.0384603762        0.2567157264
 O         -4.0668793230        0.5730237832       -0.1335750851
 C         -0.5785502301        0.1934132585        0.2398012803
 N         -2.8994855381        0.8816223472        0.0623256454
 C         -1.3562037083       -2.4559313777       -0.1212490333
 C          0.3775377376       -0.7947126526        0.2237814126
 C         -2.3142226338       -1.4676926792       -0.1207057839
 C         -0.0027092818       -2.1472329701        0.0419018675
 C         -1.9245149029       -0.1417902992        0.0616973285
