  20
        -39.43167421
 O          2.5296506054        1.5477312427        0.8119395440
 C         -0.6687794028       -0.6908688655       -0.8965230968
 C         -1.9243915494       -1.1095217757       -0.4985044116
 C         -2.7876839590       -0.2212081310        0.1332636663
 C         -2.3747785398        1.0885872813        0.3593741081
 C         -1.1170047073        1.4952416642       -0.0375551367
 C         -0.2531274592        0.6154570420       -0.6782269181
 O         -4.0324103176       -0.5808670647        0.5407447013
 C          1.1313271712        1.0569920143       -1.0773661431
 C          2.0417963743        0.7071937514        0.0770338389
 C          2.2838066716       -0.8098686563        0.2687469569
 O          2.9100238367       -1.3697875543       -0.6519497866
 O          1.8268605765       -1.3152399254        1.3089904187
 H          0.0064335896       -1.3893825050       -1.3706964213
 H         -2.2250977778       -2.1322294070       -0.6724377406
 H         -3.0492216168        1.7677616319        0.8554433606
 H         -0.7954264447        2.5078260224        0.1544563552
 H         -4.1990959353       -1.5149890368        0.3409584803
 H          1.1688954085        2.1316391707       -1.2606527950
 H          1.4760182363        0.4967002334       -1.9477153934
  20
        -39.43138510
 O          2.5483958315        1.5050579678        0.8438519477
 C         -1.0733960592        1.4736595044        0.0848688894
 C         -2.3333233850        1.0618625871        0.4773853843
 C         -2.7856573090       -0.2087320176        0.1413305244
 C         -1.9594291820       -1.0561527502       -0.5920664933
 C         -0.7043299816       -0.6346383629       -0.9807815008
 C         -0.2497550383        0.6378343711       -0.6561080038
 O         -4.0147745887       -0.6623466355        0.4994227154
 C          1.1339942323        1.0860047592       -1.0503399669
 C          2.0492744837        0.6921310681        0.0855868594
 C          2.2735252242       -0.8325052883        0.2298461941
 O          2.8972854612       -1.3709563497       -0.7049528052
 O          1.8058964941       -1.3627948206        1.2528964124
 H         -0.7196895028        2.4559799822        0.3608466961
 H         -2.9584920584        1.7276912958        1.0534571789
 H         -2.3141709690       -2.0438577321       -0.8399342069
 H         -0.0587289999       -1.3030719426       -1.5326063686
 H         -4.4894303511        0.0117634613        1.0111512656
 H          1.1766795502        2.1663314030       -1.1965441197
 H          1.4685998270        0.5544880974       -1.9421499629
  20
        -39.43069826
 O          1.3752257566       -0.2040748952        1.4804538028
 C         -1.2357745918       -1.0570536120       -0.1001366047
 C         -2.5717966230       -0.9435413219        0.2354302428
 C         -3.2226695705        0.2771127675        0.0972250830
 C         -2.5156202842        1.3773788654       -0.3780346604
 C         -1.1800888927        1.2528672217       -0.7057256706
 C         -0.5239278798        0.0348976713       -0.5789355872
 O         -4.5357623981        0.4423562525        0.4080696614
 C          0.9354314240       -0.0946937590       -0.8938467054
 C          1.8067750476       -0.1768980252        0.3430445430
 C          3.3180690202       -0.2485481521        0.0169203407
 O          3.9096033865        0.8421435165       -0.0729128775
 O          3.7739215651       -1.3957220342       -0.1445208890
 H         -0.7299417804       -2.0045293420        0.0177233994
 H         -3.1048848140       -1.8054366889        0.6090990451
 H         -3.0278744918        2.3209860082       -0.4776429780
 H         -0.6352389091        2.1137779125       -1.0644009314
 H         -4.9140493873       -0.3891351875        0.7332802670
 H          1.3064467665        0.7514180864       -1.4779755226
 H          1.1513950399       -1.0052683258       -1.4615433805
  20
        -39.43061041
 O          1.3708270447       -0.1640488018        1.4851054935
 C         -1.2652318525       -1.0798644840       -0.1326338331
 C         -2.5978046939       -0.9424236151        0.1983193438
 C         -3.2197054924        0.2981772901        0.0880408568
 C         -2.4851693327        1.3914186554       -0.3550859699
 C         -1.1493948678        1.2419657010       -0.6809084561
 C         -0.5240798215        0.0072827155       -0.5819583617
 O         -4.5348713604        0.3894976868        0.4197327056
 C          0.9340616778       -0.1451447278       -0.8920837301
 C          1.8039920066       -0.1820783561        0.3481556631
 C          3.3162325754       -0.2579272357        0.0271881790
 O          3.8997265474        0.8346652111       -0.0916661406
 O          3.7811404313       -1.4052265489       -0.1012817155
 H         -0.7835758474       -2.0419578642       -0.0357451654
 H         -3.1741689756       -1.7836476113        0.5489914666
 H         -2.9516695314        2.3617630742       -0.4410950474
 H         -0.5815914180        2.0980054634       -1.0155066459
 H         -4.8501519310        1.2996394705        0.3068031975
 H          1.3114336322        0.6745313963       -1.5090783336
 H          1.1436274287       -1.0793376064       -1.4220170797
  20
        -39.42983782
 O          1.9442777900        1.2620669828        1.0431763692
 C         -0.8478803454       -0.8214615706       -0.5245998152
 C         -2.1365491638       -1.0675991257       -0.0899258757
 C         -2.9795913022       -0.0077272899        0.2270129676
 C         -2.5116195559        1.2972866691        0.1056499851
 C         -1.2225392956        1.5338455418       -0.3291552033
 C         -0.3808562548        0.4794798901       -0.6605978173
 O         -4.2552341622       -0.1951126377        0.6571276496
 C          1.0367200782        0.7261276597       -1.1120403298
 C          1.9166460964        0.4955311484        0.0974083590
 C          2.7637304335       -0.8111894874        0.0894582493
 O          3.8798442586       -0.7358182451        0.6339455395
 O          2.2524741120       -1.7996247384       -0.4692153944
 H         -0.1789337198       -1.6404424313       -0.7489286882
 H         -2.4804168685       -2.0868242582        0.0091554987
 H         -3.1709996528        2.1113334342        0.3605020650
 H         -0.8635833030        2.5484998583       -0.4106273081
 H         -4.4621640925       -1.1412684524        0.7028135692
 H          1.1536226706        1.7571199944       -1.4462547427
 H          1.3227983025        0.0225201116       -1.8933784765
  20
        -39.42980990
 O          3.3800342789        1.1420470777        0.2764157525
 C         -0.8239850276        0.3056308843        1.2015245329
 C         -2.0125771253       -0.3901059149        1.0888189011
 C         -2.6668596331       -0.4551210139       -0.1353807016
 C         -2.1160739961        0.1883900560       -1.2388046016
 C         -0.9266001005        0.8774084340       -1.1144699720
 C         -0.2653691637        0.9485634116        0.1050165330
 O         -3.8400596487       -1.1242132898       -0.2995220810
 C          1.0456495224        1.6639367082        0.2316054975
 C          2.2373215008        0.7266089192        0.1757779773
 C          1.9274434002       -0.7728250120       -0.0414402058
 O          1.8120232319       -1.1175429788       -1.2320551372
 O          1.8344146350       -1.4721700461        0.9825273413
 H         -0.3084995958        0.3319915401        2.1507602984
 H         -2.4213860291       -0.8938931562        1.9525717047
 H         -2.6267001884        0.1249234494       -2.1864661465
 H         -0.4951954591        1.3556889485       -1.9813196391
 H         -4.1109303633       -1.5391436346        0.5337186965
 H          1.1158850274        2.2010257532        1.1817352812
 H          1.1789338883        2.3926878233       -0.5723140623
  20
        -39.42969310
 O          1.6600324029        0.9854828241        1.1879869646
 C         -1.0328164568       -0.9313786991       -0.4434648190
 C         -2.3504699795       -1.0324893919       -0.0384431566
 C         -3.1037238393        0.1171789236        0.1724190241
 C         -2.5173605036        1.3635425887       -0.0253999586
 C         -1.2007347129        1.4536914319       -0.4315694817
 C         -0.4458575335        0.3092271560       -0.6550444904
 O         -4.4033235876        0.0737036470        0.5684319981
 C          1.0015413170        0.3914612993       -1.0507610375
 C          1.8825996567        0.3309016506        0.1857597938
 C          3.0451342031       -0.6842330923        0.0940989161
 O          4.1817839887       -0.2359087474       -0.1332392912
 O          2.6906388066       -1.8701695285        0.2410342059
 H         -0.4394206702       -1.8235561408       -0.5875615824
 H         -2.7873474733       -2.0075198832        0.1205649959
 H         -3.1077472438        2.2485222805        0.1492263042
 H         -0.7492392001        2.4241030231       -0.5715577067
 H         -4.6940952837       -0.8446612014        0.6773325510
 H          1.2160131702        1.3438897910       -1.5402386239
 H          1.2836984531       -0.4276700020       -1.7137095175
  20
        -39.42958106
 O          1.9353904905        1.2460935495        1.0428732918
 C         -0.8629726144       -0.8267547386       -0.5205319577
 C         -2.1520614964       -1.0572249830       -0.0857875408
 C         -2.9859031446        0.0136363648        0.2274215379
 C         -2.5053108433        1.3115314404        0.1020538664
 C         -1.2116175683        1.5331683360       -0.3344782074
 C         -0.3820782256        0.4704926278       -0.6620339596
 O         -4.2490072769       -0.2576312910        0.6496713657
 C          1.0374565602        0.7013092225       -1.1144311501
 C          1.9171084192        0.4795192070        0.0969573907
 C          2.7744903701       -0.8202997135        0.0901374304
 O          3.8858491827       -0.7396350003        0.6435568542
 O          2.2732369421       -1.8094971966       -0.4762568083
 H         -0.2025968626       -1.6532164195       -0.7424533566
 H         -2.5291401568       -2.0615641100        0.0245323833
 H         -3.1373481078        2.1517594115        0.3485360662
 H         -0.8421225437        2.5439358005       -0.4194322493
 H         -4.7269531929        0.5651319253        0.8390421081
 H          1.1630548705        1.7272519067       -1.4611396131
 H          1.3193962607       -0.0136593676       -1.8869131448
  20
        -39.42921276
 O          2.5904871994        1.1573557126        1.2315746427
 C         -0.6309520600       -0.2396070218        0.6245915484
 C         -1.9334634933       -0.6562017524        0.8421770712
 C         -2.9715396635       -0.1379398164        0.0784349005
 C         -2.6866264797        0.8028912511       -0.9078080929
 C         -1.3856216320        1.2092268463       -1.1189182718
 C         -0.3398543618        0.6946099227       -0.3582227036
 O         -4.2656122200       -0.5115082897        0.2549821234
 C          1.0667243940        1.1841580361       -0.6168599200
 C          2.0845282269        0.5550327365        0.2991848457
 C          2.5320785904       -0.8793228971       -0.0789912159
 O          3.0944073033       -0.9533410789       -1.1892909810
 O          2.3181591482       -1.7897117974        0.7393508161
 H          0.1680404729       -0.6598545264        1.2201680373
 H         -2.1318188649       -1.3893207812        1.6103267484
 H         -3.4976347029        1.1998771880       -1.4966892772
 H         -1.1714029879        1.9369916833       -1.8864668583
 H         -4.3359527483       -1.1705891047        0.9623951517
 H          1.1039462952        2.2706587328       -0.4930310586
 H          1.3588291929        0.9196878939       -1.6378070783
  20
        -39.42875243
 O          2.4323747077       -0.0165415564        1.8216960178
 C         -1.3950429124       -1.6601713520       -0.0047988842
 C         -2.6989960888       -1.2308422072       -0.1610904492
 C         -2.9877539610        0.1292138394       -0.1620360332
 C         -1.9511245068        1.0434719910       -0.0048783512
 C         -0.6494892370        0.6043589418        0.1495580694
 C         -0.3539253521       -0.7527308992        0.1506447651
 O         -4.2512848636        0.6057698282       -0.3099943189
 C          1.0544961165       -1.2760165948        0.3205116088
 C          2.0394132010       -0.1933838005        0.6807826081
 C          2.6067346040        0.6187637395       -0.5105184986
 O          3.2415773719       -0.0716623742       -1.3323186153
 O          2.4065901910        1.8451927251       -0.5257310437
 H         -1.1780316503       -2.7175058384       -0.0049911592
 H         -3.4903318506       -1.9553660443       -0.2823129533
 H         -2.1779485678        2.0978395713       -0.0071841379
 H          0.1460295692        1.3283702274        0.2604450141
 H         -4.8795212243       -0.1270198072       -0.4111182172
 H          1.3961320263       -1.7134495837       -0.6228266405
 H          1.0658318816       -2.0371799687        1.1059101211
